 D3A3-R2 H FILE PATH
 /scratch9/pr21vyci/adaptive-remeshing/runs/d3d_active_seg_dc_1377515.mmaster02/
 d3_transfer_h.dat
 D3A3-R2 H LOAD COMPLETE       25600
1

   Abaqus 2023                                  Date 23-Jul-2026   Time 15:50:22
   For use by TECHNISCHE UNIVERSITAET BERGAKADEMIE FREIBERG under license from Dassault Systemes or its subsidiary.

                                                                                 
                                                                                 
 STEP    1     INCREMENT     1     STEP TIME    0.00    


                        A N A L Y S I S    D A T A C H E C K




                        S T E P       1     S T A T I C   A N A L Y S I S


                                                                                          

     AUTOMATIC TIME CONTROL WITH -
          A SUGGESTED INITIAL TIME INCREMENT OF                 1.00    
          AND A TOTAL TIME PERIOD OF                            1.00    
          THE MINIMUM TIME INCREMENT ALLOWED IS                1.000E-05
          THE MAXIMUM TIME INCREMENT ALLOWED IS                 1.00    

     LINEAR EQUATION SOLVER TYPE         DIRECT SPARSE

 ***WARNING: THERE ARE 2 UNCONNECTED REGIONS IN THE MODEL.

     COLLECTING MODEL CONSTRAINT INFORMATION FOR OVERCONSTRAINT CHECKS

     COLLECTING STEP CONSTRAINT INFORMATION FOR OVERCONSTRAINT CHECKS



     JOB TIME SUMMARY
       USER TIME (SEC)      =     0.32    
       SYSTEM TIME (SEC)    =     9.00E-02
       TOTAL CPU TIME (SEC) =     0.41    
       WALLCLOCK TIME (SEC) =            1
       MEMORY PEAK (GB)     =            0
