 Abaqus/Standard 2023                  DATE 16-Jul-2026 TIME 07:40:12
 SUMMARY OF JOB INFORMATION:
 STEP  INC ATT SEVERE EQUIL TOTAL  TOTAL      STEP       INC OF       DOF    IF
               DISCON ITERS ITERS  TIME/    TIME/LPF    TIME/LPF    MONITOR RIKS
               ITERS               FREQ
   1     1   1     0     1     1  0.00200    0.00200    0.002000  
   1     2   1     0     1     1  0.00400    0.00400    0.002000  
   1     3   1     0     1     1  0.00600    0.00600    0.002000  
   1     4   1     0     1     1  0.00800    0.00800    0.002000  
   1     5   1     0     1     1  0.0100     0.0100     0.002000  
   1     6   1     0     1     1  0.0120     0.0120     0.002000  
   1     7   1     0     1     1  0.0140     0.0140     0.002000  
   1     8   1     0     1     1  0.0160     0.0160     0.002000  
   1     9   1     0     1     1  0.0180     0.0180     0.002000  
   1    10   1     0     1     1  0.0200     0.0200     0.002000  
   1    11   1     0     1     1  0.0220     0.0220     0.002000  
   1    12   1     0     1     1  0.0240     0.0240     0.002000  
   1    13   1     0     1     1  0.0260     0.0260     0.002000  
   1    14   1     0     1     1  0.0280     0.0280     0.002000  
   1    15   1     0     1     1  0.0300     0.0300     0.002000  
   1    16   1     0     1     1  0.0320     0.0320     0.002000  
   1    17   1     0     1     1  0.0340     0.0340     0.002000  
   1    18   1     0     1     1  0.0360     0.0360     0.002000  
   1    19   1     0     1     1  0.0380     0.0380     0.002000  
   1    20   1     0     1     1  0.0400     0.0400     0.002000  
   1    21   1     0     1     1  0.0420     0.0420     0.002000  
   1    22   1     0     1     1  0.0440     0.0440     0.002000  
   1    23   1     0     1     1  0.0460     0.0460     0.002000  
   1    24   1     0     1     1  0.0480     0.0480     0.002000  
   1    25   1     0     1     1  0.0500     0.0500     0.002000  
   1    26   1     0     1     1  0.0520     0.0520     0.002000  
   1    27   1     0     1     1  0.0540     0.0540     0.002000  
   1    28   1     0     1     1  0.0560     0.0560     0.002000  
   1    29   1     0     1     1  0.0580     0.0580     0.002000  
   1    30   1     0     1     1  0.0600     0.0600     0.002000  
   1    31   1     0     1     1  0.0620     0.0620     0.002000  
   1    32   1     0     1     1  0.0640     0.0640     0.002000  
   1    33   1     0     1     1  0.0660     0.0660     0.002000  
   1    34   1     0     1     1  0.0680     0.0680     0.002000  
   1    35   1     0     1     1  0.0700     0.0700     0.002000  
   1    36   1     0     1     1  0.0720     0.0720     0.002000  
   1    37   1     0     1     1  0.0740     0.0740     0.002000  
   1    38   1     0     1     1  0.0760     0.0760     0.002000  
   1    39   1     0     1     1  0.0780     0.0780     0.002000  
   1    40   1     0     1     1  0.0800     0.0800     0.002000  
   1    41   1     0     1     1  0.0820     0.0820     0.002000  
   1    42   1     0     1     1  0.0840     0.0840     0.002000  
   1    43   1     0     1     1  0.0860     0.0860     0.002000  
   1    44   1     0     1     1  0.0880     0.0880     0.002000  
   1    45   1     0     1     1  0.0900     0.0900     0.002000  
   1    46   1     0     1     1  0.0920     0.0920     0.002000  
   1    47   1     0     1     1  0.0940     0.0940     0.002000  
   1    48   1     0     1     1  0.0960     0.0960     0.002000  
   1    49   1     0     1     1  0.0980     0.0980     0.002000  
   1    50   1     0     1     1  0.100      0.100      0.002000  
   1    51   1     0     1     1  0.102      0.102      0.002000  
   1    52   1     0     1     1  0.104      0.104      0.002000  
   1    53   1     0     1     1  0.106      0.106      0.002000  
   1    54   1     0     1     1  0.108      0.108      0.002000  
   1    55   1     0     1     1  0.110      0.110      0.002000  
   1    56   1     0     1     1  0.112      0.112      0.002000  
   1    57   1     0     1     1  0.114      0.114      0.002000  
   1    58   1     0     1     1  0.116      0.116      0.002000  
   1    59   1     0     1     1  0.118      0.118      0.002000  
   1    60   1     0     1     1  0.120      0.120      0.002000  
   1    61   1     0     1     1  0.122      0.122      0.002000  
   1    62   1     0     1     1  0.124      0.124      0.002000  
   1    63   1     0     1     1  0.126      0.126      0.002000  
   1    64   1     0     1     1  0.128      0.128      0.002000  
   1    65   1     0     1     1  0.130      0.130      0.002000  
   1    66   1     0     1     1  0.132      0.132      0.002000  
   1    67   1     0     1     1  0.134      0.134      0.002000  
   1    68   1     0     1     1  0.136      0.136      0.002000  
   1    69   1     0     1     1  0.138      0.138      0.002000  
   1    70   1     0     1     1  0.140      0.140      0.002000  
   1    71   1     0     1     1  0.142      0.142      0.002000  
   1    72   1     0     1     1  0.144      0.144      0.002000  
   1    73   1     0     1     1  0.146      0.146      0.002000  
   1    74   1     0     1     1  0.148      0.148      0.002000  
   1    75   1     0     1     1  0.150      0.150      0.002000  
   1    76   1     0     1     1  0.152      0.152      0.002000  
   1    77   1     0     1     1  0.154      0.154      0.002000  
   1    78   1     0     1     1  0.156      0.156      0.002000  
   1    79   1     0     1     1  0.158      0.158      0.002000  
   1    80   1     0     1     1  0.160      0.160      0.002000  
   1    81   1     0     1     1  0.162      0.162      0.002000  
   1    82   1     0     1     1  0.164      0.164      0.002000  
   1    83   1     0     1     1  0.166      0.166      0.002000  
   1    84   1     0     1     1  0.168      0.168      0.002000  
   1    85   1     0     1     1  0.170      0.170      0.002000  
   1    86   1     0     1     1  0.172      0.172      0.002000  
   1    87   1     0     1     1  0.174      0.174      0.002000  
   1    88   1     0     1     1  0.176      0.176      0.002000  
   1    89   1     0     1     1  0.178      0.178      0.002000  
   1    90   1     0     1     1  0.180      0.180      0.002000  
   1    91   1     0     1     1  0.182      0.182      0.002000  
   1    92   1     0     1     1  0.184      0.184      0.002000  
   1    93   1     0     1     1  0.186      0.186      0.002000  
   1    94   1     0     1     1  0.188      0.188      0.002000  
   1    95   1     0     1     1  0.190      0.190      0.002000  
   1    96   1     0     1     1  0.192      0.192      0.002000  
   1    97   1     0     1     1  0.194      0.194      0.002000  
   1    98   1     0     1     1  0.196      0.196      0.002000  
   1    99   1     0     1     1  0.198      0.198      0.002000  
   1   100   1     0     1     1  0.200      0.200      0.002000  
   1   101   1     0     1     1  0.202      0.202      0.002000  
   1   102   1     0     1     1  0.204      0.204      0.002000  
   1   103   1     0     1     1  0.206      0.206      0.002000  
   1   104   1     0     1     1  0.208      0.208      0.002000  
   1   105   1     0     1     1  0.210      0.210      0.002000  
   1   106   1     0     1     1  0.212      0.212      0.002000  
   1   107   1     0     1     1  0.214      0.214      0.002000  
   1   108   1     0     1     1  0.216      0.216      0.002000  
   1   109   1     0     1     1  0.218      0.218      0.002000  
   1   110   1     0     1     1  0.220      0.220      0.002000  
   1   111   1     0     1     1  0.222      0.222      0.002000  
   1   112   1     0     1     1  0.224      0.224      0.002000  
   1   113   1     0     1     1  0.226      0.226      0.002000  
   1   114   1     0     1     1  0.228      0.228      0.002000  
   1   115   1     0     1     1  0.230      0.230      0.002000  
   1   116   1     0     1     1  0.232      0.232      0.002000  
   1   117   1     0     1     1  0.234      0.234      0.002000  
   1   118   1     0     1     1  0.236      0.236      0.002000  
   1   119   1     0     1     1  0.238      0.238      0.002000  
   1   120   1     0     1     1  0.240      0.240      0.002000  
   1   121   1     0     1     1  0.242      0.242      0.002000  
   1   122   1     0     1     1  0.244      0.244      0.002000  
   1   123   1     0     1     1  0.246      0.246      0.002000  
   1   124   1     0     1     1  0.248      0.248      0.002000  
   1   125   1     0     1     1  0.250      0.250      0.002000  
   1   126   1     0     1     1  0.252      0.252      0.002000  
   1   127   1     0     1     1  0.254      0.254      0.002000  
   1   128   1     0     1     1  0.256      0.256      0.002000  
   1   129   1     0     1     1  0.258      0.258      0.002000  
   1   130   1     0     1     1  0.260      0.260      0.002000  
   1   131   1     0     1     1  0.262      0.262      0.002000  
   1   132   1     0     1     1  0.264      0.264      0.002000  
   1   133   1     0     1     1  0.266      0.266      0.002000  
   1   134   1     0     1     1  0.268      0.268      0.002000  
   1   135   1     0     1     1  0.270      0.270      0.002000  
   1   136   1     0     1     1  0.272      0.272      0.002000  
   1   137   1     0     1     1  0.274      0.274      0.002000  
   1   138   1     0     1     1  0.276      0.276      0.002000  
   1   139   1     0     1     1  0.278      0.278      0.002000  
   1   140   1     0     1     1  0.280      0.280      0.002000  
   1   141   1     0     1     1  0.282      0.282      0.002000  
   1   142   1     0     1     1  0.284      0.284      0.002000  
   1   143   1     0     1     1  0.286      0.286      0.002000  
   1   144   1     0     1     1  0.288      0.288      0.002000  
   1   145   1     0     1     1  0.290      0.290      0.002000  
   1   146   1     0     1     1  0.292      0.292      0.002000  
   1   147   1     0     1     1  0.294      0.294      0.002000  
   1   148   1     0     1     1  0.296      0.296      0.002000  
   1   149   1     0     1     1  0.298      0.298      0.002000  
   1   150   1     0     1     1  0.300      0.300      0.002000  
   1   151   1     0     1     1  0.302      0.302      0.002000  
   1   152   1     0     1     1  0.304      0.304      0.002000  
   1   153   1     0     1     1  0.306      0.306      0.002000  
   1   154   1     0     1     1  0.308      0.308      0.002000  
   1   155   1     0     1     1  0.310      0.310      0.002000  
   1   156   1     0     1     1  0.312      0.312      0.002000  
   1   157   1     0     1     1  0.314      0.314      0.002000  
   1   158   1     0     1     1  0.316      0.316      0.002000  
   1   159   1     0     1     1  0.318      0.318      0.002000  
   1   160   1     0     1     1  0.320      0.320      0.002000  
   1   161   1     0     1     1  0.322      0.322      0.002000  
   1   162   1     0     1     1  0.324      0.324      0.002000  
   1   163   1     0     1     1  0.326      0.326      0.002000  
   1   164   1     0     1     1  0.328      0.328      0.002000  
   1   165   1     0     1     1  0.330      0.330      0.002000  
   1   166   1     0     1     1  0.332      0.332      0.002000  
   1   167   1     0     1     1  0.334      0.334      0.002000  
   1   168   1     0     1     1  0.336      0.336      0.002000  
   1   169   1     0     1     1  0.338      0.338      0.002000  
   1   170   1     0     1     1  0.340      0.340      0.002000  
   1   171   1     0     1     1  0.342      0.342      0.002000  
   1   172   1     0     1     1  0.344      0.344      0.002000  
   1   173   1     0     1     1  0.346      0.346      0.002000  
   1   174   1     0     1     1  0.348      0.348      0.002000  
   1   175   1     0     1     1  0.350      0.350      0.002000  
   1   176   1     0     1     1  0.352      0.352      0.002000  
   1   177   1     0     1     1  0.354      0.354      0.002000  
   1   178   1     0     1     1  0.356      0.356      0.002000  
   1   179   1     0     1     1  0.358      0.358      0.002000  
   1   180   1     0     1     1  0.360      0.360      0.002000  
   1   181   1     0     1     1  0.362      0.362      0.002000  
   1   182   1     0     1     1  0.364      0.364      0.002000  
   1   183   1     0     1     1  0.366      0.366      0.002000  
   1   184   1     0     1     1  0.368      0.368      0.002000  
   1   185   1     0     1     1  0.370      0.370      0.002000  
   1   186   1     0     1     1  0.372      0.372      0.002000  
   1   187   1     0     1     1  0.374      0.374      0.002000  
   1   188   1     0     1     1  0.376      0.376      0.002000  
   1   189   1     0     1     1  0.378      0.378      0.002000  
   1   190   1     0     1     1  0.380      0.380      0.002000  
   1   191   1     0     1     1  0.382      0.382      0.002000  
   1   192   1     0     1     1  0.384      0.384      0.002000  
   1   193   1     0     1     1  0.386      0.386      0.002000  
   1   194   1     0     1     1  0.388      0.388      0.002000  
   1   195   1     0     1     1  0.390      0.390      0.002000  
   1   196   1     0     1     1  0.392      0.392      0.002000  
   1   197   1     0     1     1  0.394      0.394      0.002000  
   1   198   1     0     1     1  0.396      0.396      0.002000  
   1   199   1     0     1     1  0.398      0.398      0.002000  
   1   200   1     0     1     1  0.400      0.400      0.002000  
   1   201   1     0     1     1  0.402      0.402      0.002000  
   1   202   1     0     1     1  0.404      0.404      0.002000  
   1   203   1     0     1     1  0.406      0.406      0.002000  
   1   204   1     0     1     1  0.408      0.408      0.002000  
   1   205   1     0     1     1  0.410      0.410      0.002000  
   1   206   1     0     1     1  0.412      0.412      0.002000  
   1   207   1     0     1     1  0.414      0.414      0.002000  
   1   208   1     0     1     1  0.416      0.416      0.002000  
   1   209   1     0     1     1  0.418      0.418      0.002000  
   1   210   1     0     1     1  0.420      0.420      0.002000  
   1   211   1     0     1     1  0.422      0.422      0.002000  
   1   212   1     0     1     1  0.424      0.424      0.002000  
   1   213   1     0     1     1  0.426      0.426      0.002000  
   1   214   1     0     1     1  0.428      0.428      0.002000  
   1   215   1     0     1     1  0.430      0.430      0.002000  
   1   216   1     0     1     1  0.432      0.432      0.002000  
   1   217   1     0     1     1  0.434      0.434      0.002000  
   1   218   1     0     1     1  0.436      0.436      0.002000  
   1   219   1     0     1     1  0.438      0.438      0.002000  
   1   220   1     0     1     1  0.440      0.440      0.002000  
   1   221   1     0     1     1  0.442      0.442      0.002000  
   1   222   1     0     1     1  0.444      0.444      0.002000  
   1   223   1     0     1     1  0.446      0.446      0.002000  
   1   224   1     0     1     1  0.448      0.448      0.002000  
   1   225   1     0     1     1  0.450      0.450      0.002000  
   1   226   1     0     1     1  0.452      0.452      0.002000  
   1   227   1     0     1     1  0.454      0.454      0.002000  
   1   228   1     0     1     1  0.456      0.456      0.002000  
   1   229   1     0     1     1  0.458      0.458      0.002000  
   1   230   1     0     1     1  0.460      0.460      0.002000  
   1   231   1     0     1     1  0.462      0.462      0.002000  
   1   232   1     0     1     1  0.464      0.464      0.002000  
   1   233   1     0     1     1  0.466      0.466      0.002000  
   1   234   1     0     1     1  0.468      0.468      0.002000  
   1   235   1     0     1     1  0.470      0.470      0.002000  
   1   236   1     0     1     1  0.472      0.472      0.002000  
   1   237   1     0     1     1  0.474      0.474      0.002000  
   1   238   1     0     1     1  0.476      0.476      0.002000  
   1   239   1     0     1     1  0.478      0.478      0.002000  
   1   240   1     0     1     1  0.480      0.480      0.002000  
   1   241   1     0     1     1  0.482      0.482      0.002000  
   1   242   1     0     1     1  0.484      0.484      0.002000  
   1   243   1     0     1     1  0.486      0.486      0.002000  
   1   244   1     0     1     1  0.488      0.488      0.002000  
   1   245   1     0     1     1  0.490      0.490      0.002000  
   1   246   1     0     1     1  0.492      0.492      0.002000  
   1   247   1     0     1     1  0.494      0.494      0.002000  
   1   248   1     0     1     1  0.496      0.496      0.002000  
   1   249   1     0     1     1  0.498      0.498      0.002000  
   1   250   1     0     1     1  0.500      0.500      0.002000  
   1   251   1     0     1     1  0.502      0.502      0.002000  
   1   252   1     0     1     1  0.504      0.504      0.002000  
   1   253   1     0     1     1  0.506      0.506      0.002000  
   1   254   1     0     1     1  0.508      0.508      0.002000  
   1   255   1     0     1     1  0.510      0.510      0.002000  
   1   256   1     0     1     1  0.512      0.512      0.002000  
   1   257   1     0     1     1  0.514      0.514      0.002000  
   1   258   1     0     1     1  0.516      0.516      0.002000  
   1   259   1     0     1     1  0.518      0.518      0.002000  
   1   260   1     0     1     1  0.520      0.520      0.002000  
   1   261   1     0     1     1  0.522      0.522      0.002000  
   1   262   1     0     1     1  0.524      0.524      0.002000  
   1   263   1     0     1     1  0.526      0.526      0.002000  
   1   264   1     0     1     1  0.528      0.528      0.002000  
   1   265   1     0     1     1  0.530      0.530      0.002000  
   1   266   1     0     1     1  0.532      0.532      0.002000  
   1   267   1     0     1     1  0.534      0.534      0.002000  
   1   268   1     0     1     1  0.536      0.536      0.002000  
   1   269   1     0     1     1  0.538      0.538      0.002000  
   1   270   1     0     1     1  0.540      0.540      0.002000  
   1   271   1     0     1     1  0.542      0.542      0.002000  
   1   272   1     0     1     1  0.544      0.544      0.002000  
   1   273   1     0     1     1  0.546      0.546      0.002000  
   1   274   1     0     1     1  0.548      0.548      0.002000  
   1   275   1     0     1     1  0.550      0.550      0.002000  
   1   276   1     0     1     1  0.552      0.552      0.002000  
   1   277   1     0     1     1  0.554      0.554      0.002000  
   1   278   1     0     1     1  0.556      0.556      0.002000  
   1   279   1     0     1     1  0.558      0.558      0.002000  
   1   280   1     0     1     1  0.560      0.560      0.002000  
   1   281   1     0     1     1  0.562      0.562      0.002000  
   1   282   1     0     1     1  0.564      0.564      0.002000  
   1   283   1     0     1     1  0.566      0.566      0.002000  
   1   284   1     0     1     1  0.568      0.568      0.002000  
   1   285   1     0     1     1  0.570      0.570      0.002000  
   1   286   1     0     1     1  0.572      0.572      0.002000  
   1   287   1     0     1     1  0.574      0.574      0.002000  
   1   288   1     0     1     1  0.576      0.576      0.002000  
   1   289   1     0     1     1  0.578      0.578      0.002000  
   1   290   1     0     1     1  0.580      0.580      0.002000  
   1   291   1     0     1     1  0.582      0.582      0.002000  
   1   292   1     0     1     1  0.584      0.584      0.002000  
   1   293   1     0     1     1  0.586      0.586      0.002000  
   1   294   1     0     1     1  0.588      0.588      0.002000  
   1   295   1     0     1     1  0.590      0.590      0.002000  
   1   296   1     0     1     1  0.592      0.592      0.002000  
   1   297   1     0     1     1  0.594      0.594      0.002000  
   1   298   1     0     1     1  0.596      0.596      0.002000  
   1   299   1     0     1     1  0.598      0.598      0.002000  
   1   300   1     0     1     1  0.600      0.600      0.002000  
   1   301   1     0     1     1  0.602      0.602      0.002000  
   1   302   1     0     1     1  0.604      0.604      0.002000  
   1   303   1     0     1     1  0.606      0.606      0.002000  
   1   304   1     0     1     1  0.608      0.608      0.002000  
   1   305   1     0     1     1  0.610      0.610      0.002000  
   1   306   1     0     1     1  0.612      0.612      0.002000  
   1   307   1     0     1     1  0.614      0.614      0.002000  
   1   308   1     0     1     1  0.616      0.616      0.002000  
   1   309   1     0     1     1  0.618      0.618      0.002000  
   1   310   1     0     1     1  0.620      0.620      0.002000  
   1   311   1     0     1     1  0.622      0.622      0.002000  
   1   312   1     0     1     1  0.624      0.624      0.002000  
   1   313   1     0     1     1  0.626      0.626      0.002000  
   1   314   1     0     1     1  0.628      0.628      0.002000  
   1   315   1     0     1     1  0.630      0.630      0.002000  
   1   316   1     0     1     1  0.632      0.632      0.002000  
   1   317   1     0     1     1  0.634      0.634      0.002000  
   1   318   1     0     1     1  0.636      0.636      0.002000  
   1   319   1     0     1     1  0.638      0.638      0.002000  
   1   320   1     0     1     1  0.640      0.640      0.002000  
   1   321   1     0     1     1  0.642      0.642      0.002000  
   1   322   1     0     1     1  0.644      0.644      0.002000  
   1   323   1     0     1     1  0.646      0.646      0.002000  
   1   324   1     0     1     1  0.648      0.648      0.002000  
   1   325   1     0     1     1  0.650      0.650      0.002000  
   1   326   1     0     1     1  0.652      0.652      0.002000  
   1   327   1     0     1     1  0.654      0.654      0.002000  
   1   328   1     0     1     1  0.656      0.656      0.002000  
   1   329   1     0     1     1  0.658      0.658      0.002000  
   1   330   1     0     1     1  0.660      0.660      0.002000  
   1   331   1     0     1     1  0.662      0.662      0.002000  
   1   332   1     0     1     1  0.664      0.664      0.002000  
   1   333   1     0     1     1  0.666      0.666      0.002000  
   1   334   1     0     1     1  0.668      0.668      0.002000  
   1   335   1     0     1     1  0.670      0.670      0.002000  
   1   336   1     0     1     1  0.672      0.672      0.002000  
   1   337   1     0     1     1  0.674      0.674      0.002000  
   1   338   1     0     1     1  0.676      0.676      0.002000  
   1   339   1     0     1     1  0.678      0.678      0.002000  
   1   340   1     0     1     1  0.680      0.680      0.002000  
   1   341   1     0     1     1  0.682      0.682      0.002000  
   1   342   1     0     1     1  0.684      0.684      0.002000  
   1   343   1     0     1     1  0.686      0.686      0.002000  
   1   344   1     0     1     1  0.688      0.688      0.002000  
   1   345   1     0     1     1  0.690      0.690      0.002000  
   1   346   1     0     1     1  0.692      0.692      0.002000  
   1   347   1     0     1     1  0.694      0.694      0.002000  
   1   348   1     0     1     1  0.696      0.696      0.002000  
   1   349   1     0     1     1  0.698      0.698      0.002000  
   1   350   1     0     1     1  0.700      0.700      0.002000  
   1   351   1     0     1     1  0.702      0.702      0.002000  
   1   352   1     0     1     1  0.704      0.704      0.002000  
   1   353   1     0     1     1  0.706      0.706      0.002000  
   1   354   1     0     1     1  0.708      0.708      0.002000  
   1   355   1     0     1     1  0.710      0.710      0.002000  
   1   356   1     0     1     1  0.712      0.712      0.002000  
   1   357   1     0     1     1  0.714      0.714      0.002000  
   1   358   1     0     1     1  0.716      0.716      0.002000  
   1   359   1     0     1     1  0.718      0.718      0.002000  
   1   360   1     0     1     1  0.720      0.720      0.002000  
   1   361   1     0     1     1  0.722      0.722      0.002000  
   1   362   1     0     1     1  0.724      0.724      0.002000  
   1   363   1     0     1     1  0.726      0.726      0.002000  
   1   364   1     0     1     1  0.728      0.728      0.002000  
   1   365   1     0     1     1  0.730      0.730      0.002000  
   1   366   1     0     1     1  0.732      0.732      0.002000  
   1   367   1     0     1     1  0.734      0.734      0.002000  
   1   368   1     0     1     1  0.736      0.736      0.002000  
   1   369   1     0     1     1  0.738      0.738      0.002000  
   1   370   1     0     1     1  0.740      0.740      0.002000  
   1   371   1     0     1     1  0.742      0.742      0.002000  
   1   372   1     0     1     1  0.744      0.744      0.002000  
   1   373   1     0     1     1  0.746      0.746      0.002000  
   1   374   1     0     1     1  0.748      0.748      0.002000  
   1   375   1     0     1     1  0.750      0.750      0.002000  
   1   376   1     0     1     1  0.752      0.752      0.002000  
   1   377   1     0     1     1  0.754      0.754      0.002000  
   1   378   1     0     1     1  0.756      0.756      0.002000  
   1   379   1     0     1     1  0.758      0.758      0.002000  
   1   380   1     0     1     1  0.760      0.760      0.002000  
   1   381   1     0     1     1  0.762      0.762      0.002000  
   1   382   1     0     1     1  0.764      0.764      0.002000  
   1   383   1     0     1     1  0.766      0.766      0.002000  
   1   384   1     0     1     1  0.768      0.768      0.002000  
   1   385   1     0     1     1  0.770      0.770      0.002000  
   1   386   1     0     1     1  0.772      0.772      0.002000  
   1   387   1     0     1     1  0.774      0.774      0.002000  
   1   388   1     0     1     1  0.776      0.776      0.002000  
   1   389   1     0     1     1  0.778      0.778      0.002000  
   1   390   1     0     1     1  0.780      0.780      0.002000  
   1   391   1     0     1     1  0.782      0.782      0.002000  
   1   392   1     0     1     1  0.784      0.784      0.002000  
   1   393   1     0     1     1  0.786      0.786      0.002000  
   1   394   1     0     1     1  0.788      0.788      0.002000  
   1   395   1     0     1     1  0.790      0.790      0.002000  
   1   396   1     0     1     1  0.792      0.792      0.002000  
   1   397   1     0     1     1  0.794      0.794      0.002000  
   1   398   1     0     1     1  0.796      0.796      0.002000  
   1   399   1     0     1     1  0.798      0.798      0.002000  
   1   400   1     0     1     1  0.800      0.800      0.002000  
   1   401   1     0     1     1  0.802      0.802      0.002000  
   1   402   1     0     1     1  0.804      0.804      0.002000  
   1   403   1     0     1     1  0.806      0.806      0.002000  
   1   404   1     0     1     1  0.808      0.808      0.002000  
   1   405   1     0     1     1  0.810      0.810      0.002000  
   1   406   1     0     1     1  0.812      0.812      0.002000  
   1   407   1     0     1     1  0.814      0.814      0.002000  
   1   408   1     0     1     1  0.816      0.816      0.002000  
   1   409   1     0     1     1  0.818      0.818      0.002000  
   1   410   1     0     1     1  0.820      0.820      0.002000  
   1   411   1     0     1     1  0.822      0.822      0.002000  
   1   412   1     0     1     1  0.824      0.824      0.002000  
   1   413   1     0     1     1  0.826      0.826      0.002000  
   1   414   1     0     1     1  0.828      0.828      0.002000  
   1   415   1     0     1     1  0.830      0.830      0.002000  
   1   416   1     0     1     1  0.832      0.832      0.002000  
   1   417   1     0     1     1  0.834      0.834      0.002000  
   1   418   1     0     1     1  0.836      0.836      0.002000  
   1   419   1     0     1     1  0.838      0.838      0.002000  
   1   420   1     0     1     1  0.840      0.840      0.002000  
   1   421   1     0     1     1  0.842      0.842      0.002000  
   1   422   1     0     1     1  0.844      0.844      0.002000  
   1   423   1     0     1     1  0.846      0.846      0.002000  
   1   424   1     0     1     1  0.848      0.848      0.002000  
   1   425   1     0     1     1  0.850      0.850      0.002000  
   1   426   1     0     1     1  0.852      0.852      0.002000  
   1   427   1     0     1     1  0.854      0.854      0.002000  
   1   428   1     0     1     1  0.856      0.856      0.002000  
   1   429   1     0     1     1  0.858      0.858      0.002000  
   1   430   1     0     1     1  0.860      0.860      0.002000  
   1   431   1     0     1     1  0.862      0.862      0.002000  
   1   432   1     0     1     1  0.864      0.864      0.002000  
   1   433   1     0     1     1  0.866      0.866      0.002000  
   1   434   1     0     1     1  0.868      0.868      0.002000  
   1   435   1     0     1     1  0.870      0.870      0.002000  
   1   436   1     0     1     1  0.872      0.872      0.002000  
   1   437   1     0     1     1  0.874      0.874      0.002000  
   1   438   1     0     1     1  0.876      0.876      0.002000  
   1   439   1     0     1     1  0.878      0.878      0.002000  
   1   440   1     0     1     1  0.880      0.880      0.002000  
   1   441   1     0     1     1  0.882      0.882      0.002000  
   1   442   1     0     1     1  0.884      0.884      0.002000  
   1   443   1     0     1     1  0.886      0.886      0.002000  
   1   444   1     0     1     1  0.888      0.888      0.002000  
   1   445   1     0     1     1  0.890      0.890      0.002000  
   1   446   1     0     1     1  0.892      0.892      0.002000  
   1   447   1     0     1     1  0.894      0.894      0.002000  
   1   448   1     0     1     1  0.896      0.896      0.002000  
   1   449   1     0     1     1  0.898      0.898      0.002000  
   1   450   1     0     1     1  0.900      0.900      0.002000  
   1   451   1     0     1     1  0.902      0.902      0.002000  
   1   452   1     0     1     1  0.904      0.904      0.002000  
   1   453   1     0     1     1  0.906      0.906      0.002000  
   1   454   1     0     1     1  0.908      0.908      0.002000  
   1   455   1     0     1     1  0.910      0.910      0.002000  
   1   456   1     0     1     1  0.912      0.912      0.002000  
   1   457   1     0     1     1  0.914      0.914      0.002000  
   1   458   1     0     1     1  0.916      0.916      0.002000  
   1   459   1     0     1     1  0.918      0.918      0.002000  
   1   460   1     0     1     1  0.920      0.920      0.002000  
   1   461   1     0     1     1  0.922      0.922      0.002000  
   1   462   1     0     1     1  0.924      0.924      0.002000  
   1   463   1     0     1     1  0.926      0.926      0.002000  
   1   464   1     0     1     1  0.928      0.928      0.002000  
   1   465   1     0     1     1  0.930      0.930      0.002000  
   1   466   1     0     1     1  0.932      0.932      0.002000  
   1   467   1     0     1     1  0.934      0.934      0.002000  
   1   468   1     0     1     1  0.936      0.936      0.002000  
   1   469   1     0     1     1  0.938      0.938      0.002000  
   1   470   1     0     1     1  0.940      0.940      0.002000  
   1   471   1     0     1     1  0.942      0.942      0.002000  
   1   472   1     0     1     1  0.944      0.944      0.002000  
   1   473   1     0     1     1  0.946      0.946      0.002000  
   1   474   1     0     1     1  0.948      0.948      0.002000  
   1   475   1     0     1     1  0.950      0.950      0.002000  
   1   476   1     0     1     1  0.952      0.952      0.002000  
   1   477   1     0     1     1  0.954      0.954      0.002000  
   1   478   1     0     1     1  0.956      0.956      0.002000  
   1   479   1     0     1     1  0.958      0.958      0.002000  
   1   480   1     0     1     1  0.960      0.960      0.002000  
   1   481   1     0     1     1  0.962      0.962      0.002000  
   1   482   1     0     1     1  0.964      0.964      0.002000  
   1   483   1     0     1     1  0.966      0.966      0.002000  
   1   484   1     0     1     1  0.968      0.968      0.002000  
   1   485   1     0     1     1  0.970      0.970      0.002000  
   1   486   1     0     1     1  0.972      0.972      0.002000  
   1   487   1     0     1     1  0.974      0.974      0.002000  
   1   488   1     0     1     1  0.976      0.976      0.002000  
   1   489   1     0     1     1  0.978      0.978      0.002000  
   1   490   1     0     1     1  0.980      0.980      0.002000  
   1   491   1     0     1     1  0.982      0.982      0.002000  
   1   492   1     0     1     1  0.984      0.984      0.002000  
   1   493   1     0     1     1  0.986      0.986      0.002000  
   1   494   1     0     1     1  0.988      0.988      0.002000  
   1   495   1     0     1     1  0.990      0.990      0.002000  
   1   496   1     0     1     1  0.992      0.992      0.002000  
   1   497   1     0     1     1  0.994      0.994      0.002000  
   1   498   1     0     1     1  0.996      0.996      0.002000  
   1   499   1     0     1     1  0.998      0.998      0.002000  
   1   500   1     0     1     1  1.00       1.00       0.002000  
   2     1   1     0     1     1  1.01       0.00588    0.005882  
   2     2   1     0     1     1  1.01       0.0118     0.005882  
   2     3   1     0     1     1  1.02       0.0176     0.005882  
   2     4   1     0     1     1  1.02       0.0235     0.005882  
   2     5   1     0     1     1  1.03       0.0294     0.005882  
   2     6   1     0     1     1  1.04       0.0353     0.005882  
   2     7   1     0     1     1  1.04       0.0412     0.005882  
   2     8   1     0     1     1  1.05       0.0471     0.005882  
   2     9   1     0     1     1  1.05       0.0529     0.005882  
   2    10   1     0     1     1  1.06       0.0588     0.005882  
   2    11   1     0     1     1  1.06       0.0647     0.005882  
   2    12   1     0     1     1  1.07       0.0706     0.005882  
   2    13   1     0     1     1  1.08       0.0765     0.005882  
   2    14   1     0     1     1  1.08       0.0824     0.005882  
   2    15   1     0     1     1  1.09       0.0882     0.005882  
   2    16   1     0     1     1  1.09       0.0941     0.005882  
   2    17   1     0     1     1  1.10       0.100      0.005882  
   2    18   1     0     1     1  1.11       0.106      0.005882  
   2    19   1     0     1     1  1.11       0.112      0.005882  
   2    20   1     0     1     1  1.12       0.118      0.005882  
   2    21   1     0     1     1  1.12       0.124      0.005882  
   2    22   1     0     1     1  1.13       0.129      0.005882  
   2    23   1     0     1     1  1.14       0.135      0.005882  
   2    24   1     0     1     1  1.14       0.141      0.005882  
   2    25   1     0     1     1  1.15       0.147      0.005882  
   2    26   1     0     1     1  1.15       0.153      0.005882  
   2    27   1     0     1     1  1.16       0.159      0.005882  
   2    28   1     0     1     1  1.16       0.165      0.005882  
   2    29   1     0     1     1  1.17       0.171      0.005882  
   2    30   1     0     1     1  1.18       0.176      0.005882  
   2    31   1     0     1     1  1.18       0.182      0.005882  
   2    32   1     0     1     1  1.19       0.188      0.005882  
   2    33   1     0     1     1  1.19       0.194      0.005882  
   2    34   1     0     1     1  1.20       0.200      0.005882  
   2    35   1     0     1     1  1.21       0.206      0.005882  
   2    36   1     0     1     1  1.21       0.212      0.005882  
   2    37   1     0     1     1  1.22       0.218      0.005882  
   2    38   1     0     1     1  1.22       0.224      0.005882  
   2    39   1     0     1     1  1.23       0.229      0.005882  
   2    40   1     0     1     1  1.24       0.235      0.005882  
   2    41   1     0     1     1  1.24       0.241      0.005882  
   2    42   1     0     1     1  1.25       0.247      0.005882  
   2    43   1     0     1     1  1.25       0.253      0.005882  
   2    44   1     0     1     1  1.26       0.259      0.005882  
   2    45   1     0     1     1  1.26       0.265      0.005882  
   2    46   1     0     1     1  1.27       0.271      0.005882  
   2    47   1     0     1     1  1.28       0.276      0.005882  
   2    48   1     0     1     1  1.28       0.282      0.005882  
   2    49   1     0     1     1  1.29       0.288      0.005882  
   2    50   1     0     1     1  1.29       0.294      0.005882  
   2    51   1     0     1     1  1.30       0.300      0.005882  
   2    52   1     0     1     1  1.31       0.306      0.005882  
   2    53   1     0     1     1  1.31       0.312      0.005882  
   2    54   1     0     1     1  1.32       0.318      0.005882  
   2    55   1     0     1     1  1.32       0.324      0.005882  
   2    56   1     0     1     1  1.33       0.329      0.005882  
   2    57   1     0     1     1  1.34       0.335      0.005882  
   2    58   1     0     1     1  1.34       0.341      0.005882  
   2    59   1     0     1     1  1.35       0.347      0.005882  
   2    60   1     0     1     1  1.35       0.353      0.005882  
   2    61   1     0     1     1  1.36       0.359      0.005882  
   2    62   1     0     1     1  1.36       0.365      0.005882  
   2    63   1     0     1     1  1.37       0.371      0.005882  
   2    64   1     0     1     1  1.38       0.376      0.005882  
   2    65   1     0     1     1  1.38       0.382      0.005882  
   2    66   1     0     1     1  1.39       0.388      0.005882  
   2    67   1     0     1     1  1.39       0.394      0.005882  
   2    68   1     0     1     1  1.40       0.400      0.005882  
   2    69   1     0     1     1  1.41       0.406      0.005882  
   2    70   1     0     1     1  1.41       0.412      0.005882  
   2    71   1     0     1     1  1.42       0.418      0.005882  
   2    72   1     0     1     1  1.42       0.424      0.005882  
   2    73   1     0     1     1  1.43       0.429      0.005882  
   2    74   1     0     1     1  1.44       0.435      0.005882  
   2    75   1     0     1     1  1.44       0.441      0.005882  
   2    76   1     0     1     1  1.45       0.447      0.005882  
   2    77   1     0     1     1  1.45       0.453      0.005882  
   2    78   1     0     1     1  1.46       0.459      0.005882  
   2    79   1     0     1     1  1.46       0.465      0.005882  
   2    80   1     0     1     1  1.47       0.471      0.005882  
   2    81   1     0     1     1  1.48       0.476      0.005882  
   2    82   1     0     1     1  1.48       0.482      0.005882  
   2    83   1     0     1     1  1.49       0.488      0.005882  
   2    84   1     0     1     1  1.49       0.494      0.005882  
   2    85   1     0     1     1  1.50       0.500      0.005882  
   2    86   1     0     1     1  1.51       0.506      0.005882  
   2    87   1     0     1     1  1.51       0.512      0.005882  
   2    88   1     0     1     1  1.52       0.518      0.005882  
   2    89   1     0     1     1  1.52       0.524      0.005882  
   2    90   1     0     1     1  1.53       0.529      0.005882  
   2    91   1     0     1     1  1.54       0.535      0.005882  
   2    92   1     0     1     1  1.54       0.541      0.005882  
   2    93   1     0     1     1  1.55       0.547      0.005882  
   2    94   1     0     1     1  1.55       0.553      0.005882  
   2    95   1     0     1     1  1.56       0.559      0.005882  
   2    96   1     0     1     1  1.56       0.565      0.005882  
   2    97   1     0     1     1  1.57       0.571      0.005882  
   2    98   1     0     1     1  1.58       0.576      0.005882  
   2    99   1     0     1     1  1.58       0.582      0.005882  
   2   100   1     0     1     1  1.59       0.588      0.005882  
   2   101   1     0     1     1  1.59       0.594      0.005882  
   2   102   1     0     2     2  1.60       0.600      0.005882  
   2   103   1     0     1     1  1.61       0.606      0.005882  
   2   104   1     0     2     2  1.61       0.612      0.005882  
   2   105   1     0     1     1  1.62       0.618      0.005882  
   2   106   1     0     2     2  1.62       0.624      0.005882  
   2   107   1     0     1     1  1.63       0.629      0.005882  
   2   108   1     0     2     2  1.64       0.635      0.005882  
   2   109   1     0     1     1  1.64       0.641      0.005882  
   2   110   1     0     2     2  1.65       0.647      0.005882  
   2   111   1     0     1     1  1.65       0.653      0.005882  
   2   112   1     0     2     2  1.66       0.659      0.005882  
   2   113   1     0     1     1  1.66       0.665      0.005882  
   2   114   1     0     2     2  1.67       0.671      0.005882  
   2   115   1     0     1     1  1.68       0.676      0.005882  
   2   116   1     0     2     2  1.68       0.682      0.005882  
   2   117   1     0     1     1  1.69       0.688      0.005882  
   2   118   1     0     2     2  1.69       0.694      0.005882  
   2   119   1     0     1     1  1.70       0.700      0.005882  
   2   120   1     0     2     2  1.71       0.706      0.005882  
   2   121   1     0     1     1  1.71       0.712      0.005882  
   2   122   1     0     2     2  1.72       0.718      0.005882  
   2   123   1     0     1     1  1.72       0.724      0.005882  
   2   124   1     0     2     2  1.73       0.729      0.005882  
   2   125   1     0     1     1  1.74       0.735      0.005882  
   2   126   1     0     2     2  1.74       0.741      0.005882  
   2   127   1     0     1     1  1.75       0.747      0.005882  
   2   128   1     0     2     2  1.75       0.753      0.005882  
   2   129   1     0     1     1  1.76       0.759      0.005882  
   2   130   1     0     2     2  1.76       0.765      0.005882  
   2   131   1     0     1     1  1.77       0.771      0.005882  
   2   132   1     0     2     2  1.78       0.776      0.005882  
   2   133   1     0     1     1  1.78       0.782      0.005882  
   2   134   1     0     2     2  1.79       0.788      0.005882  
   2   135   1     0     1     1  1.79       0.794      0.005882  
   2   136   1     0     2     2  1.80       0.800      0.005882  
   2   137   1     0     1     1  1.81       0.806      0.005882  
   2   138   1     0     2     2  1.81       0.812      0.005882  
   2   139   1     0     1     1  1.82       0.818      0.005882  
   2   140   1     0     2     2  1.82       0.824      0.005882  
   2   141   1     0     1     1  1.83       0.829      0.005882  
   2   142   1     0     2     2  1.84       0.835      0.005882  
   2   143   1     0     1     1  1.84       0.841      0.005882  
   2   144   1     0     2     2  1.85       0.847      0.005882  
   2   145   1     0     1     1  1.85       0.853      0.005882  
   2   146   1     0     2     2  1.86       0.859      0.005882  
   2   147   1     0     1     1  1.86       0.865      0.005882  
   2   148   1     0     2     2  1.87       0.871      0.005882  
   2   149   1     0     1     1  1.88       0.876      0.005882  
   2   150   1     0     2     2  1.88       0.882      0.005882  
   2   151   1     0     1     1  1.89       0.888      0.005882  
   2   152   1     0     2     2  1.89       0.894      0.005882  
   2   153   1     0     1     1  1.90       0.900      0.005882  
   2   154   1     0     2     2  1.91       0.906      0.005882  
   2   155   1     0     1     1  1.91       0.912      0.005882  
   2   156   1     0     2     2  1.92       0.918      0.005882  
   2   157   1     0     1     1  1.92       0.924      0.005882  
   2   158   1     0     2     2  1.93       0.929      0.005882  
   2   159   1     0     1     1  1.94       0.935      0.005882  
   2   160   1     0     2     2  1.94       0.941      0.005882  
   2   161   1     0     1     1  1.95       0.947      0.005882  
   2   162   1     0     2     2  1.95       0.953      0.005882  
   2   163   1     0     1     1  1.96       0.959      0.005882  
   2   164   1     0     2     2  1.96       0.965      0.005882  
   2   165   1     0     1     1  1.97       0.971      0.005882  
   2   166   1     0     2     2  1.98       0.976      0.005882  
   2   167   1     0     1     1  1.98       0.982      0.005882  
   2   168   1     0     2     2  1.99       0.988      0.005882  
   2   169   1     0     1     1  1.99       0.994      0.005882  
   2   170   1     0     2     2  2.00       1.00       0.005882  
                          
 THE ANALYSIS HAS COMPLETED SUCCESSFULLY
