1

   Abaqus 2023                                  Date 16-Jul-2026   Time 07:40:01
   For use by TECHNISCHE UNIVERSITAET BERGAKADEMIE FREIBERG under license from Dassault Systemes or its subsidiary.



                         The Abaqus Software is a product of:

                           Dassault Systemes SIMULIA Corp.
                           1301 Atwood Avenue, Suite 101W
                              Johnston, RI 02919, USA
 


                   The Abaqus Software is available only under license
                   from Dassault Systemes or its subsidiary and may be
                   used or reproduced only in accordance with the terms
                   of such license.
 
                          On machine mnode099.cluster 
                          you are authorized to run
                          Abaqus/Standard until 30-Nov-2026

                          Your site id is: 200000000053187 


 
                    For assistance or any other information you may
                    obtain contact information for your local office
                    from the world wide web at:

                      http://www.3ds.com/products/simulia/locations/

 
                * * * * * * * * * * * * * * * * * * * * * * * * * * * * * * 
                *                                                         * 
                *                   *****************                     * 
                *                   *  N O T I C E  *                     * 
                *                   *****************                     * 
                *                                                         * 
                *                                                         * 
                *                       Abaqus 2023                       * 
                *                                                         * 
                *          BUILD ID: 2022_09_28-20.11.55 183150           * 
                *                                                         * 
                *                                                         * 
                *  Please make sure you are using                         * 
                *  release Abaqus 2023 manuals                            * 
                *  plus the notes accompanying this release.              * 
                *                                                         * 
                *                                                         * 
                *                                                         * 
                *                                                         * 
                *                                                         * 
                *   This program may not be used for commercial purposes  * 
                *           without payment of a commercial fee.          * 
                *                                                         * 
                * * * * * * * * * * * * * * * * * * * * * * * * * * * * * * 


 



     PROCESSING PART, INSTANCE, AND ASSEMBLY INFORMATION
   *******************************************************


     END PROCESSING PART, INSTANCE, AND ASSEMBLY INFORMATION
   ***********************************************************




     OPTIONS BEING PROCESSED
   ***************************


  *userelement, nodes=4, type=U1, properties=3, variables=8, coordinates=2
  *userelement, nodes=4, type=U2, properties=4, variables=56, coordinates=2
  *Heading
  *Node
  *Element, type=U1
  *Element, type=U2
  *Element, type=CPS4
  *Elset, elset=ASSEMBLY_PART-1-1_PLATE
  *Elset, elset=ASSEMBLY_PART-1-1_PLATE_SS
  *Elset, elset=ASSEMBLY_PART-1-1_UMATELEM
  *Node
  *Nset, nset=ASSEMBLY_BOTTOM
  *Nset, nset=ASSEMBLY_BOTTOML
  *Nset, nset=ASSEMBLY_NOTCH_LOWER_FACE
  *Nset, nset=ASSEMBLY_NOTCH_UPPER_FACE
  *Nset, nset=ASSEMBLY_RP
  *Nset, nset=ASSEMBLY_TOP
  *Nset, nset=ASSEMBLY_TOPL
  *Elset, elset=ASSEMBLY_UMATELEM
  *material, name=UMATELEM
  *depvar
  *usermaterial, constants=2
  *solidsection, elset=ASSEMBLY_PART-1-1_UMATELEM, material=UMATELEM
  *userelement, nodes=4, type=U1, properties=3, variables=8, coordinates=2
  *userelement, nodes=4, type=U2, properties=4, variables=56, coordinates=2
  *solidsection, elset=ASSEMBLY_PART-1-1_UMATELEM, material=UMATELEM
  *boundary, amplitude=AMP-1
  *boundary
  *boundary
  *boundary
  *boundary, amplitude=AMP-2
  *boundary, amplitude=AMP-1
  *boundary
  *boundary
  *boundary
  *equation
  *uelproperty, elset=ASSEMBLY_PART-1-1_PLATE
  *uelproperty, elset=ASSEMBLY_PART-1-1_PLATE_SS
  *output, field, timeinterval=0.01
  *output, field, timeinterval=0.01
  *elementoutput, elset=ASSEMBLY_UMATELEM
  *elementoutput, elset=ASSEMBLY_UMATELEM
  *output, field, timeinterval=0.01
  *output, field, timeinterval=0.01
  *elementoutput, elset=ASSEMBLY_UMATELEM
  *elementoutput, elset=ASSEMBLY_UMATELEM
  *output, field, timeinterval=0.01
  *output, field, timeinterval=0.01
  *elementoutput, elset=ASSEMBLY_UMATELEM
  *elementoutput, elset=ASSEMBLY_UMATELEM

 ***NOTE: MPCS (EXTERNAL or INTERNAL, including those generated from rigid body 
          definitions), KINEMATIC COUPLINGS, AND/OR EQUATIONS WILL ACTIVATE 
          ADDITIONAL DEGREES OF FREEDOM
  *Step, name=Step-1, nlgeom=NO, inc=500
  *output, field, timeinterval=0.01
  *Step, name=Step-2, nlgeom=NO, inc=170
  *output, field, timeinterval=0.01
  *Step, name=Step-1, nlgeom=NO, inc=500
  *Step, name=Step-2, nlgeom=NO, inc=170
  *Step, name=Step-1, nlgeom=NO, inc=500
  *static, direct
  *boundary, amplitude=AMP-1
  *boundary
  *boundary
  *boundary
  *output, field, timeinterval=0.01
  *nodeoutput
  *nodeoutput, nset=ASSEMBLY_RP
  *elementoutput, elset=ASSEMBLY_UMATELEM
  *endstep

 ***WARNING: AN OUTPUT REQUEST AT EXACT TIME POINTS IS NOT SUPPORTED IN AN 
             ANALYSIS WITH DIRECT INCREMNTATION. IT WILL BE CHANGED TO AN 
             OUTPUT REQUEST AT APPROXIMATE TIME POINTS.

 ***WARNING: THE *ELEMENT OUTPUT OPTION IS NOT SUPPORTED FOR USER ELEMENTS

 ***WARNING: THE *ELEMENT OUTPUT OPTION IS NOT SUPPORTED FOR USER ELEMENTS
  *Step, name=Step-2, nlgeom=NO, inc=170
  *static, direct
  *boundary, amplitude=AMP-2
  *output, field, timeinterval=0.01
  *nodeoutput
  *nodeoutput, nset=ASSEMBLY_RP
  *elementoutput, elset=ASSEMBLY_UMATELEM
  *endstep

 ***WARNING: AN OUTPUT REQUEST AT EXACT TIME POINTS IS NOT SUPPORTED IN AN 
             ANALYSIS WITH DIRECT INCREMNTATION. IT WILL BE CHANGED TO AN 
             OUTPUT REQUEST AT APPROXIMATE TIME POINTS.

 ***WARNING: THE *ELEMENT OUTPUT OPTION IS NOT SUPPORTED FOR USER ELEMENTS

 ***WARNING: THE *ELEMENT OUTPUT OPTION IS NOT SUPPORTED FOR USER ELEMENTS
  *Step, name=Step-1, nlgeom=NO, inc=500
  *static, direct
  *boundary, amplitude=AMP-1
  *boundary
  *boundary
  *boundary
  *endstep
  *Step, name=Step-2, nlgeom=NO, inc=170
  *static, direct
  *boundary, amplitude=AMP-2
  *endstep



                            P R O B L E M   S I Z E


          NUMBER OF ELEMENTS IS                                101556
          NUMBER OF NODES IS                                    34508
          NUMBER OF NODES DEFINED BY THE USER                   34508
          TOTAL NUMBER OF VARIABLES IN THE MODEL               103522
          (DEGREES OF FREEDOM PLUS MAX NO. OF ANY LAGRANGE MULTIPLIER
           VARIABLES. INCLUDE *PRINT,SOLVE=YES TO GET THE ACTUAL NUMBER.)



                              END OF USER INPUT PROCESSING



     JOB TIME SUMMARY
       USER TIME (SEC)      =      1.5    
       SYSTEM TIME (SEC)    =     0.17    
       TOTAL CPU TIME (SEC) =      1.6    
       WALLCLOCK TIME (SEC) =            2
1

   Abaqus 2023                                  Date 16-Jul-2026   Time 07:40:07
   For use by TECHNISCHE UNIVERSITAET BERGAKADEMIE FREIBERG under license from Dassault Systemes or its subsidiary.

                                                                                               STEP    1  INCREMENT    1
                                                                                          TIME COMPLETED IN THIS STEP   0.00    


                        S T E P       1     S T A T I C   A N A L Y S I S


                                                                                          

          FIXED TIME INCREMENTS
          TIME INCREMENT IS                                    2.000E-03
          TIME PERIOD IS                                        1.00    

     LINEAR EQUATION SOLVER TYPE         DIRECT SPARSE
  
                   M E M O R Y   E S T I M A T E
  
 PROCESS      FLOATING PT       MINIMUM MEMORY        MEMORY TO
              OPERATIONS           REQUIRED          MINIMIZE I/O
             PER ITERATION           (MB)               (MB)
  
     1          1.96E+09               73                322
  
 NOTE:
      (1) SINCE ABAQUS DOES NOT PRE-ALLOCATE MEMORY AND ONLY ALLOCATES MEMORY AS NEEDED DURING THE ANALYSIS,
          THE MEMORY REQUIREMENT PRINTED HERE CAN ONLY BE VIEWED AS A GENERAL GUIDELINE BASED ON THE BEST
          KNOWLEDGE AVAILABLE AT THE BEGINNING OF A STEP BEFORE THE SOLUTION PROCESS HAS BEGUN.
      (2) THE ESTIMATE IS NORMALLY UPDATED AT THE BEGINNING OF EVERY STEP. IT IS THE MAXIMUM VALUE OF THE
          ESTIMATE FROM THE CURRENT STEP TO THE LAST STEP OF THE ANALYSIS, WITH UNSYMMETRIC SOLUTION TAKEN
          INTO ACCOUNT IF APPLICABLE. 
      (3) SINCE THE ESTIMATE IS BASED ON THE ACTIVE DEGREES OF FREEDOM IN THE FIRST ITERATION OF THE 
          CURRENT STEP, THE MEMORY ESTIMATE MIGHT BE SIGNIFICANTLY DIFFERENT THAN ACTUAL USAGE FOR 
          PROBLEMS WITH SUBSTANTIAL CHANGES IN ACTIVE DEGREES OF FREEDOM BETWEEN STEPS (OR EVEN WITHIN
          THE SAME STEP). EXAMPLES ARE: PROBLEMS WITH SIGNIFICANT CONTACT CHANGES, PROBLEMS WITH MODEL
          CHANGE, PROBLEMS WITH BOTH STATIC STEP AND STEADY STATE DYNAMIC PROCEDURES WHERE ACOUSTIC 
          ELEMENTS WILL ONLY BE ACTIVATED IN THE STEADY STATE DYNAMIC STEPS.
      (4) FOR MULTI-PROCESS EXECUTION, THE ESTIMATED VALUE OF FLOATING POINT OPERATIONS FOR EACH PROCESS
          IS BASED ON AN INITIAL SCHEDULING OF OPERATIONS AND MIGHT NOT REFLECT THE ACTUAL FLOATING 
          POINT OPERATIONS COMPLETED ON EACH PROCESS. OPERATIONS ARE DYNAMICALLY BALANCED DURING EXECUTION, 
          SO THE ACTUAL BALANCE OF OPERATIONS BETWEEN PROCESSES IS EXPECTED TO BE BETTER THAN THE ESTIMATE
          PRINTED HERE.
      (5) THE UPPER LIMIT OF MEMORY THAT CAN BE ALLOCATED BY ABAQUS WILL IN GENERAL DEPEND ON THE VALUE OF
          THE "MEMORY" PARAMETER AND THE AMOUNT OF PHYSICAL MEMORY AVAILABLE ON THE MACHINE. PLEASE SEE
          THE "ABAQUS ANALYSIS USER'S MANUAL" FOR MORE DETAILS. THE ACTUAL USAGE OF MEMORY AND OF DISK
          SPACE FOR SCRATCH DATA WILL DEPEND ON THIS UPPER LIMIT AS WELL AS THE MEMORY REQUIRED TO MINIMIZE
          I/O. IF THE MEMORY UPPER LIMIT IS GREATER THAN THE MEMORY REQUIRED TO MINIMIZE I/O, THEN THE ACTUAL
          MEMORY USAGE WILL BE CLOSE TO THE ESTIMATED "MEMORY TO MINIMIZE I/O" VALUE, AND THE SCRATCH DISK
          USAGE WILL BE CLOSE-TO-ZERO; OTHERWISE, THE ACTUAL MEMORY USED WILL BE CLOSE TO THE PREVIOUSLY
          MENTIONED MEMORY LIMIT, AND THE SCRATCH DISK USAGE WILL BE ROUGHLY PROPORTIONAL TO THE DIFFERENCE
          BETWEEN THE ESTIMATED "MEMORY TO MINIMIZE I/O" AND THE MEMORY UPPER LIMIT. HOWEVER ACCURATE
          ESTIMATE OF THE SCRATCH DISK SPACE IS NOT POSSIBLE.
      (6) USING "*RESTART, WRITE" CAN GENERATE A LARGE AMOUNT OF DATA WRITTEN IN THE WORK DIRECTORY.
1

   Abaqus 2023                                  Date 16-Jul-2026   Time 08:06:55
   For use by TECHNISCHE UNIVERSITAET BERGAKADEMIE FREIBERG under license from Dassault Systemes or its subsidiary.

                                                                                               STEP    2  INCREMENT    1
                                                                                          TIME COMPLETED IN THIS STEP   0.00    


                        S T E P       2     S T A T I C   A N A L Y S I S


                                                                                          

          FIXED TIME INCREMENTS
          TIME INCREMENT IS                                    5.882E-03
          TIME PERIOD IS                                        1.00    

     LINEAR EQUATION SOLVER TYPE         DIRECT SPARSE
  
                   M E M O R Y   E S T I M A T E
  
 PROCESS      FLOATING PT       MINIMUM MEMORY        MEMORY TO
              OPERATIONS           REQUIRED          MINIMIZE I/O
             PER ITERATION           (MB)               (MB)
  
     1          1.96E+09               73                322
  
 NOTE:
      (1) SINCE ABAQUS DOES NOT PRE-ALLOCATE MEMORY AND ONLY ALLOCATES MEMORY AS NEEDED DURING THE ANALYSIS,
          THE MEMORY REQUIREMENT PRINTED HERE CAN ONLY BE VIEWED AS A GENERAL GUIDELINE BASED ON THE BEST
          KNOWLEDGE AVAILABLE AT THE BEGINNING OF A STEP BEFORE THE SOLUTION PROCESS HAS BEGUN.
      (2) THE ESTIMATE IS NORMALLY UPDATED AT THE BEGINNING OF EVERY STEP. IT IS THE MAXIMUM VALUE OF THE
          ESTIMATE FROM THE CURRENT STEP TO THE LAST STEP OF THE ANALYSIS, WITH UNSYMMETRIC SOLUTION TAKEN
          INTO ACCOUNT IF APPLICABLE. 
      (3) SINCE THE ESTIMATE IS BASED ON THE ACTIVE DEGREES OF FREEDOM IN THE FIRST ITERATION OF THE 
          CURRENT STEP, THE MEMORY ESTIMATE MIGHT BE SIGNIFICANTLY DIFFERENT THAN ACTUAL USAGE FOR 
          PROBLEMS WITH SUBSTANTIAL CHANGES IN ACTIVE DEGREES OF FREEDOM BETWEEN STEPS (OR EVEN WITHIN
          THE SAME STEP). EXAMPLES ARE: PROBLEMS WITH SIGNIFICANT CONTACT CHANGES, PROBLEMS WITH MODEL
          CHANGE, PROBLEMS WITH BOTH STATIC STEP AND STEADY STATE DYNAMIC PROCEDURES WHERE ACOUSTIC 
          ELEMENTS WILL ONLY BE ACTIVATED IN THE STEADY STATE DYNAMIC STEPS.
      (4) FOR MULTI-PROCESS EXECUTION, THE ESTIMATED VALUE OF FLOATING POINT OPERATIONS FOR EACH PROCESS
          IS BASED ON AN INITIAL SCHEDULING OF OPERATIONS AND MIGHT NOT REFLECT THE ACTUAL FLOATING 
          POINT OPERATIONS COMPLETED ON EACH PROCESS. OPERATIONS ARE DYNAMICALLY BALANCED DURING EXECUTION, 
          SO THE ACTUAL BALANCE OF OPERATIONS BETWEEN PROCESSES IS EXPECTED TO BE BETTER THAN THE ESTIMATE
          PRINTED HERE.
      (5) THE UPPER LIMIT OF MEMORY THAT CAN BE ALLOCATED BY ABAQUS WILL IN GENERAL DEPEND ON THE VALUE OF
          THE "MEMORY" PARAMETER AND THE AMOUNT OF PHYSICAL MEMORY AVAILABLE ON THE MACHINE. PLEASE SEE
          THE "ABAQUS ANALYSIS USER'S MANUAL" FOR MORE DETAILS. THE ACTUAL USAGE OF MEMORY AND OF DISK
          SPACE FOR SCRATCH DATA WILL DEPEND ON THIS UPPER LIMIT AS WELL AS THE MEMORY REQUIRED TO MINIMIZE
          I/O. IF THE MEMORY UPPER LIMIT IS GREATER THAN THE MEMORY REQUIRED TO MINIMIZE I/O, THEN THE ACTUAL
          MEMORY USAGE WILL BE CLOSE TO THE ESTIMATED "MEMORY TO MINIMIZE I/O" VALUE, AND THE SCRATCH DISK
          USAGE WILL BE CLOSE-TO-ZERO; OTHERWISE, THE ACTUAL MEMORY USED WILL BE CLOSE TO THE PREVIOUSLY
          MENTIONED MEMORY LIMIT, AND THE SCRATCH DISK USAGE WILL BE ROUGHLY PROPORTIONAL TO THE DIFFERENCE
          BETWEEN THE ESTIMATED "MEMORY TO MINIMIZE I/O" AND THE MEMORY UPPER LIMIT. HOWEVER ACCURATE
          ESTIMATE OF THE SCRATCH DISK SPACE IS NOT POSSIBLE.
      (6) USING "*RESTART, WRITE" CAN GENERATE A LARGE AMOUNT OF DATA WRITTEN IN THE WORK DIRECTORY.


          THE ANALYSIS HAS BEEN COMPLETED



                              ANALYSIS COMPLETE
                              WITH      6 WARNING MESSAGES ON THE DAT FILE



     JOB TIME SUMMARY
       USER TIME (SEC)      =     2.08E+03
       SYSTEM TIME (SEC)    =      57.    
       TOTAL CPU TIME (SEC) =     2.14E+03
       WALLCLOCK TIME (SEC) =         2299
