*HEADING
M2STATE_FRACFIX_RESTART1: Mode-II Evolving-Remesh / State-Transfer Continuation Restart
** Source State: M2ADAPT_MM_FRACFIX_PROD at u1 = 0.005000 mm (Step-1 frame 500)
** Target Mesh: PK5 nonmatching remeshed mesh (4894 physical elements, 14682 layered elements)
** Formulation: FRACFIX, l0=0.015 mm, Gc=0.0027 kN/mm, E=210.0 kN/mm^2, nu=0.3, k=1e-7
** NPHYS: 4894 carried in 5th property slot of U2/U4 headers.
**
*NODE, NSET=ALLNODES
     1,       0.000000,       0.600000
     2,       0.432269,      -0.500000
     3,       0.389590,      -0.500000
     4,       0.356397,      -0.500000
     5,       0.322739,      -0.500000
     6,       0.288207,      -0.500000
     7,       0.252568,      -0.500000
     8,       0.216060,      -0.500000
     9,       0.179071,      -0.500000
    10,       0.143846,      -0.500000
    11,       0.109537,      -0.500000
    12,       0.075659,      -0.500000
    13,       0.042126,      -0.500000
    14,       0.008309,      -0.500000
    15,      -0.044306,      -0.500000
    16,      -0.080305,      -0.500000
    17,      -0.098320,      -0.500000
    18,      -0.134058,      -0.500000
    19,      -0.186445,      -0.500000
    20,      -0.221781,      -0.500000
** ... 4978 like lines cut
**
** USER ELEMENT DEFINITIONS
** Quad UEL Layers (U1, U2)
*USER ELEMENT, TYPE=U1, NODES=4, COORDINATES=2, PROPERTIES=5, VARIABLES=18
1, 2
*USER ELEMENT, TYPE=U2, NODES=4, COORDINATES=2, PROPERTIES=5, VARIABLES=18
3, 0
** Tri UEL Layers (U3, U4)
*USER ELEMENT, TYPE=U3, NODES=3, COORDINATES=2, PROPERTIES=5, VARIABLES=18
1, 2
*USER ELEMENT, TYPE=U4, NODES=3, COORDINATES=2, PROPERTIES=5, VARIABLES=18
3, 0
**
** LAYERED ELEMENT TOPOLOGY
*ELEMENT, TYPE=U1, ELSET=E_U1
   129,    824,    979,   1017,    825
   130,    945,    992,   1000,    114
   131,    947,   1031,   1215,    115
   132,   1327,    203,   1860,   1573
   133,    117,   1615,   1613,    950
   134,    950,   1613,   1651,    118
   135,    951,   1709,   1896,    119
   136,    120,   1886,   1719,    953
   137,    121,   1689,   1650,    954
   138,    122,   1609,   1589,    955
   139,   1578,   1580,   1837,   1952
   140,   1579,    124,    956,   1578
   141,   1718,   1652,   1872,    430
   142,   1898,   2265,    456,   1897
   143,    920,     99,    959,   1897
   144,     27,   1005,    997,    822
   145,   1096,   1086,   1005,   1018
   146,   1159,   1169,   1243,    153
   147,    176,   4415,   4375,   1551
   148,   4379,   2201,   1962,   2107
** ... 4746 like lines cut
*ELEMENT, TYPE=U2, ELSET=E_U2
  4895,    824,    979,   1017,    825
  4896,    945,    992,   1000,    114
  4897,    947,   1031,   1215,    115
  4898,   1327,    203,   1860,   1573
  4899,    117,   1615,   1613,    950
  4900,    950,   1613,   1651,    118
  4901,    951,   1709,   1896,    119
  4902,    120,   1886,   1719,    953
  4903,    121,   1689,   1650,    954
  4904,    122,   1609,   1589,    955
  4905,   1578,   1580,   1837,   1952
  4906,   1579,    124,    956,   1578
  4907,   1718,   1652,   1872,    430
  4908,   1898,   2265,    456,   1897
  4909,    920,     99,    959,   1897
  4910,     27,   1005,    997,    822
  4911,   1096,   1086,   1005,   1018
  4912,   1159,   1169,   1243,    153
  4913,    176,   4415,   4375,   1551
  4914,   4379,   2201,   1962,   2107
** ... 4746 like lines cut
*ELEMENT, TYPE=U3, ELSET=E_U3
  9533,   4741,   4691,   3313
  9534,   3781,    272,   3754
  9535,   1449,   1372,   1430
  9536,   3125,   2946,   3106
  9537,   4830,   4231,   4197
  9538,   4785,   3376,   3304
  9539,   3059,   2909,   2934
  9540,   4310,   4275,   4302
  9541,   4191,   2596,   3926
  9542,   2558,   2395,   2470
  9543,   3046,   2997,   2944
  9544,   4534,   3851,   2780
  9545,   4006,   2947,   2475
  9546,   3693,    700,   3666
  9547,   4359,    787,   1166
  9548,   4365,   1220,   4359
  9549,   4402,   1297,   1253
  9550,   1287,   1259,   1280
  9551,   1291,   1251,   1266
  9552,   1389,   1355,   1387
** ... 108 like lines cut
*ELEMENT, TYPE=U4, ELSET=E_U4
  9661,   4741,   4691,   3313
  9662,   3781,    272,   3754
  9663,   1449,   1372,   1430
  9664,   3125,   2946,   3106
  9665,   4830,   4231,   4197
  9666,   4785,   3376,   3304
  9667,   3059,   2909,   2934
  9668,   4310,   4275,   4302
  9669,   4191,   2596,   3926
  9670,   2558,   2395,   2470
  9671,   3046,   2997,   2944
  9672,   4534,   3851,   2780
  9673,   4006,   2947,   2475
  9674,   3693,    700,   3666
  9675,   4359,    787,   1166
  9676,   4365,   1220,   4359
  9677,   4402,   1297,   1253
  9678,   1287,   1259,   1280
  9679,   1291,   1251,   1266
  9680,   1389,   1355,   1387
** ... 108 like lines cut
*ELEMENT, TYPE=CPE4, ELSET=E_CPE4
  9789,    824,    979,   1017,    825
  9790,    945,    992,   1000,    114
  9791,    947,   1031,   1215,    115
  9792,   1327,    203,   1860,   1573
  9793,    117,   1615,   1613,    950
  9794,    950,   1613,   1651,    118
  9795,    951,   1709,   1896,    119
  9796,    120,   1886,   1719,    953
  9797,    121,   1689,   1650,    954
  9798,    122,   1609,   1589,    955
  9799,   1578,   1580,   1837,   1952
  9800,   1579,    124,    956,   1578
  9801,   1718,   1652,   1872,    430
  9802,   1898,   2265,    456,   1897
  9803,    920,     99,    959,   1897
  9804,     27,   1005,    997,    822
  9805,   1096,   1086,   1005,   1018
  9806,   1159,   1169,   1243,    153
  9807,    176,   4415,   4375,   1551
  9808,   4379,   2201,   1962,   2107
** ... 4746 like lines cut
*ELEMENT, TYPE=CPE3, ELSET=E_CPE3
 14555,   4741,   4691,   3313
 14556,   3781,    272,   3754
 14557,   1449,   1372,   1430
 14558,   3125,   2946,   3106
 14559,   4830,   4231,   4197
 14560,   4785,   3376,   3304
 14561,   3059,   2909,   2934
 14562,   4310,   4275,   4302
 14563,   4191,   2596,   3926
 14564,   2558,   2395,   2470
 14565,   3046,   2997,   2944
 14566,   4534,   3851,   2780
 14567,   4006,   2947,   2475
 14568,   3693,    700,   3666
 14569,   4359,    787,   1166
 14570,   4365,   1220,   4359
 14571,   4402,   1297,   1253
 14572,   1287,   1259,   1280
 14573,   1291,   1251,   1266
 14574,   1389,   1355,   1387
** ... 108 like lines cut
**
** ELEMENT PROPERTIES
*UEL PROPERTY, ELSET=E_U1
    0.015000,     0.002700,   210.000000,     0.300000,   1.0000e-07
*UEL PROPERTY, ELSET=E_U2
    0.015000,     0.002700,   210.000000,     0.300000,         4894
*UEL PROPERTY, ELSET=E_U3
    0.015000,     0.002700,   210.000000,     0.300000,   1.0000e-07
*UEL PROPERTY, ELSET=E_U4
    0.015000,     0.002700,   210.000000,     0.300000,         4894
*SOLID SECTION, ELSET=E_CPE4, MATERIAL=MAT_PASSIVE
1.0
*SOLID SECTION, ELSET=E_CPE3, MATERIAL=MAT_PASSIVE
1.0
*MATERIAL, NAME=MAT_PASSIVE
*ELASTIC
1e-11, 0.3
**
*NSET, NSET=N_TOP
*NSET, NSET=N_BOT
    99,    100,    101,    102,    103,    104,    105,    106,    107,    108
   109,    110,    111,    112,    113,    920,    921,    922,    923,    924
   925,    926,    927,    928,    929,    930,    931,    932,    933,    934
   935,    936,    937,    938,    939,    940,    941,   4963,   4964,   4965
  4966,   4967,   4968,   4969,   4970,   4971,   4972,   4973,   4974,   4975
  4976,   4977,   4978,   4979,   4980,   4981,   4982,   4983,   4984,   4985
  4986,   4987,   4988,   4989,   4990,   4991,   4992,   4993,   4994,   4995
  4996,   4997,   4998
*NODE, NSET=N_RP
 99999,  -0.500000,   0.500000
*EQUATION
2
N_TOP, 1, 1.0, 99999, 1, -1.0
**
** INITIAL STATE INGESTION FROM MM CHECKPOINT (u1 = 0.005000 mm)
*INITIAL CONDITIONS, TYPE=SOLUTION
     1,   0.124500,   0.000350, 0.0, 0.0, 0.0
     2,   0.124500,   0.000350, 0.0, 0.0, 0.0
     3,   0.124500,   0.000350, 0.0, 0.0, 0.0
     4,   0.124500,   0.000350, 0.0, 0.0, 0.0
     5,   0.124500,   0.000350, 0.0, 0.0, 0.0
     6,   0.124500,   0.000350, 0.0, 0.0, 0.0
     7,   0.124500,   0.000350, 0.0, 0.0, 0.0
     8,   0.124500,   0.000350, 0.0, 0.0, 0.0
     9,   0.124500,   0.000350, 0.0, 0.0, 0.0
    10,   0.124500,   0.000350, 0.0, 0.0, 0.0
    11,   0.124500,   0.000350, 0.0, 0.0, 0.0
    12,   0.124500,   0.000350, 0.0, 0.0, 0.0
    13,   0.124500,   0.000350, 0.0, 0.0, 0.0
    14,   0.124500,   0.000350, 0.0, 0.0, 0.0
    15,   0.124500,   0.000350, 0.0, 0.0, 0.0
    16,   0.124500,   0.000350, 0.0, 0.0, 0.0
    17,   0.124500,   0.000350, 0.0, 0.0, 0.0
    18,   0.124500,   0.000350, 0.0, 0.0, 0.0
    19,   0.124500,   0.000350, 0.0, 0.0, 0.0
    20,   0.000000,   0.000000, 0.0, 0.0, 0.0
** ... 4746 like lines cut
**
*BOUNDARY
N_BOT, 1, 2, 0.0
N_TOP, 2, 2, 0.0
99999, 2, 2, 0.0
**
** STEP 1: MECHANICAL RE-EQUILIBRATION AT TRANSFER CHECKPOINT (u1 = 0.005000 mm)
*STEP, NAME=Step-1_Reequilibration, NLGEOM=NO, INC=100
*STATIC, DIRECT
0.01, 1.0, 0.01, 0.01
*BOUNDARY
99999, 1, 1, 0.005000
*OUTPUT, FIELD, FREQUENCY=1
*NODE OUTPUT
U, RF
*ELEMENT OUTPUT, ELSET=E_CPE4
S, E, EVOL
*ELEMENT OUTPUT, ELSET=E_U2
SDV, EVOL
*OUTPUT, HISTORY, FREQUENCY=1
*NODE OUTPUT, NSET=N_RP
U, RF
*ENERGY OUTPUT
ALLAE, ALLCD, ALLIE, ALLKE, ALLPD, ALLSE, ALLWK, ETOTAL
*END STEP
**
** STEP 2: FRACTURE CONTINUATION TO ENDPOINT (u1 = 0.010000 mm)
*STEP, NAME=Step-2_Continuation, NLGEOM=NO, INC=3000
*STATIC, DIRECT
0.0001, 1.0, 0.0001, 0.0001
*AMPLITUDE, NAME=AMP_STEP2
0.0, 0.005000, 1.0, 0.010000
*BOUNDARY, AMPLITUDE=AMP_STEP2
99999, 1, 1, 1.0
*OUTPUT, FIELD, FREQUENCY=10
*NODE OUTPUT
U, RF
*ELEMENT OUTPUT, ELSET=E_CPE4
S, E, EVOL
*ELEMENT OUTPUT, ELSET=E_U2
SDV, EVOL
*OUTPUT, HISTORY, FREQUENCY=1
*NODE OUTPUT, NSET=N_RP
U, RF
*ENERGY OUTPUT
ALLAE, ALLCD, ALLIE, ALLKE, ALLPD, ALLSE, ALLWK, ETOTAL
*END STEP
