*Heading
** Job name: F43PRE2_GEOM Model name: ModeII_Geometry_Model
** Generated by: Abaqus/CAE 2024
*Preprint, echo=NO, model=NO, history=NO, contact=NO
**
** PARTS
**
*Part, name=PlatePart
*Node
      1,  0.464285702,         -0.5
      2,  0.428571433,         -0.5
      3,  0.392857134,         -0.5
      4,  0.357142866,         -0.5
      5,  0.321428567,         -0.5
      6,  0.285714298,         -0.5
      7,         0.25,         -0.5
      8,  0.214285716,         -0.5
      9,  0.178571433,         -0.5
     10,  0.142857149,         -0.5
     11,  0.107142858,         -0.5
     12, 0.0714285746,         -0.5
     13, 0.0357142873,         -0.5
     14,           0.,         -0.5
     15, -0.0357142873,         -0.5
     16, -0.0714285746,         -0.5
     17, -0.107142858,         -0.5
     18, -0.142857149,         -0.5
     19, -0.178571433,         -0.5
     20, -0.214285716,         -0.5
** ... 3773 like lines cut
*Element, type=CPE3
  1, 3502, 3467, 1693
  2, 3327, 2038,  525
  3, 2937, 2919,  390
  4, 2742, 3699, 2693
  5, 3396, 1998,  592
  6, 2735, 2675, 2628
  7, 2418, 2342,  686
  8, 3348, 1772,  664
  9, 2235, 3615,  612
 10, 1877,  183, 1807
 11, 2789,  630, 2750
 12, 3754, 2673, 2838
 13, 3285, 1367, 1313
 14, 2323, 2517,  430
 15, 1263, 1241,  257
 16, 1264, 1242,  774
 17, 3319, 1591, 1414
 18, 1456, 1367, 1437
 19, 1568,  565, 1486
 20, 1570,  760, 1488
** ... 90 like lines cut
*Element, type=CPE4
 111,  822,   27, 1107, 3249
 112, 3249,  907,   29,  822
 113,  908, 1028,  922,  115
 114,  923,  116,  909, 1029
 115,  117,  910, 1030,  924
 116,  118,  911, 1031,  925
 117,  119,  912, 1032,  926
 118,  927,  120,  913, 1033
 119,  978,  121,  914, 1034
 120,  977,  122,  915, 1035
 121,  976,  123,  916, 1036
 122,  975,  124,  917, 1037
 123, 1039,  435, 1179,  973
 124, 1040,  973, 1179,  461
 125,  893,   99,  920, 1040
 126,   27,  821, 1043, 1107
 127, 1106, 2496, 2526, 1043
 128, 2561,  179,  922, 1028
 129, 1641, 1854, 1587, 3300
 130, 1425, 1350,  231, 1524
** ... 3577 like lines cut
*Nset, nset=_G5, internal, generate
    1,  3793,     1
*Elset, elset=_G5, internal, generate
    1,  3707,     1
** Section: SolidSection
*Solid Section, elset=_G5, material=Steel
1.,
*End Part
**  
**
** ASSEMBLY
**
*Assembly, name=Assembly
**  
*Instance, name=PlateInstance, part=PlatePart
*End Instance
**  
*Node
      1,           0.,  0.600000024,           0.
*Nset, nset=RP
 1,
*Nset, nset=bottom_nodes, instance=PlateInstance
   1,   2,   3,   4,   5,   6,   7,   8,   9,  10,  11,  12,  13,  14,  15,  16
  17,  18,  19,  20,  21,  22,  23,  24,  25,  26,  27,  28,  29, 795, 796, 797
 798, 799, 800, 801, 802, 803, 804, 805, 806, 807, 808, 809, 810, 811, 812, 813
 814, 815, 816, 817, 818, 819, 820, 821, 822
*Elset, elset=bottom_nodes, instance=PlateInstance
  111,  112,  126,  143,  158,  174,  189,  205,  221,  237,  252,  267,  282,  297,  313,  344
  386,  413,  439,  467,  496,  524,  525,  553,  579,  607,  635,  663,  691, 1452, 1464, 1572
 1573, 1574, 1575, 1576, 1577, 1578, 1579, 1580, 1581, 1582, 1583, 1586, 1636, 1638, 1639, 1640
 1642, 1643, 1644, 1645, 1646, 1647, 1648, 1649
*Nset, nset=top_nodes, instance=PlateInstance
  57,  58,  59,  60,  61,  62,  63,  64,  65,  66,  67,  68,  69,  70,  71,  72
  73,  74,  75,  76,  77,  78,  79,  80,  81,  82,  83,  84,  85, 851, 852, 853
 854, 855, 856, 857, 858, 859, 860, 861, 862, 863, 864, 865, 866, 867, 868, 869
 870, 871, 872, 873, 874, 875, 876, 877, 878
*Elset, elset=top_nodes, instance=PlateInstance
  340,  342,  369,  371,  411,  437,  465,  494,  522,  550,  576,  604,  632,  660,  688,  718
  719,  721,  733,  745,  756,  766,  774,  782,  783,  788,  794,  799,  803, 1495, 1496, 1508
 1509, 1510, 1511, 1512, 1513, 1514, 1515, 1516, 1517, 1518, 1519, 1597, 1598, 1599, 1600, 1601
 1602, 1603, 1604, 1605, 1606, 1607, 1608, 1660
** Constraint: shear_coupling
*Equation
2
top_nodes, 1, 1.
RP, 1, -1.
*End Assembly
** 
** MATERIALS
** 
*Material, name=Steel
*Elastic
210000., 0.3
** 
** BOUNDARY CONDITIONS
** 
** Name: bottom_fix Type: Displacement/Rotation
*Boundary
bottom_nodes, 1, 1
bottom_nodes, 2, 2
** Name: top_vertical_fix Type: Displacement/Rotation
*Boundary
top_nodes, 2, 2
** ----------------------------------------------------------------
** 
** STEP: Step-1
** 
*Step, name=Step-1, nlgeom=NO
*Static
0.001, 1., 1e-05, 1.
** 
** BOUNDARY CONDITIONS
** 
** Name: prescribed_shear Type: Displacement/Rotation
*Boundary
RP, 1, 1, 0.001
** 
** OUTPUT REQUESTS
** 
*Restart, write, frequency=0
** 
** FIELD OUTPUT: F-Output-1
** 
*Output, field
*Node Output
RF, U
*Element Output, directions=YES
EVOL, MISESAVG, MISESERI, S
** 
** FIELD OUTPUT:  from REMESHING RULE: MISESERI_Adaptive_Rule
** 
*Output, field, frequency=99999
*Element Output, directions=YES
MISESERI, MISESAVG, S, EVOL
** 
** HISTORY OUTPUT: H-Output-1
** 
*Output, history, variable=PRESELECT
*End Step
