*Heading
 F43REM4 Refined Standard Input Deck F43REM4_MM
** Job name: F43REM4_MM Model name: ModeII_Geometry_Model
** Generated by: Abaqus/CAE 2023
*Preprint, echo=NO, model=NO, history=NO, contact=NO
**
** PARTS
**
*Part, name=PlatePart
*Node
      1,  0.459419191,         -0.5
      2,  0.414104581,         -0.5
      3,  0.393609643,         -0.5
      4,  0.350943625,         -0.5
      5,  0.305542231,         -0.5
      6,  0.279608071,         -0.5
      7,  0.228385985,         -0.5
      8,  0.202199668,         -0.5
      9,  0.148599833,         -0.5
     10,  0.122674912,         -0.5
     11, 0.0716153383,         -0.5
     12, 0.0463799536,         -0.5
     13, -0.0047147274,         -0.5
     14, -0.0311186314,         -0.5
     15, -0.0851564407,         -0.5
     16, -0.112205625,         -0.5
     17, -0.165322244,         -0.5
     18, -0.191484332,         -0.5
     19, -0.218082309,         -0.5
     20, -0.274565399,         -0.5
** ... 2274 like lines cut
*Element, type=CPE3
 1,  135, 1184, 1196
 2, 2032, 1898, 1304
 3, 1354, 1504, 1300
 4, 1979,  619,  644
 5, 1384,  473, 1334
 6, 1356,  463, 1056
 7, 2190,  284, 1692
 8, 1822,  213, 1821
 9, 2247, 1724, 2199
10, 2232, 1917, 1921
11, 1857, 1853, 1849
12,  210, 1765, 1771
13,  946,  916,  927
14, 2025,  328, 1426
15, 2084,  415, 1231
16,  967,  961,  953
17, 2186, 1796,  526
18,  840,  771,  776
19, 1947,  838,  844
20,  770,  703,  702
** ... 49 like lines cut
*Element, type=CPE4
  70,  761,  680,  679,  769
  71, 1059, 1288, 1228,  115
  72, 1291, 1399, 2044, 1264
  73, 1191,  154, 1291,  134
  74, 1249,  133, 1140,  132
  75, 1239, 1970,  131, 1584
  76,  130,  150,  151, 1470
  77, 1956, 1247,  148,  128
  78,  127,  126, 1245,  147
  79, 1444, 1395, 1287,  125
  80, 1444, 1230, 1391,  146
  81, 1276, 1373, 1192, 1234
  82, 1292, 1276, 1234,  123
  83, 1340, 1198, 1988, 1989
  84, 1240,  122,  121, 1472
  85, 1367, 1495, 1308, 1175
  86, 1262, 1229, 1392,  141
  87, 1221, 1274, 1280,  119
  88, 1217, 1987, 1405,  118
  89, 1400,  925, 1986,  137
** ... 2117 like lines cut
*Nset, nset=_G5, internal, generate
    1,  2294,     1
*Elset, elset=_G5, internal, generate
    1,  2206,     1
** Section: SolidSection
*Solid Section, elset=_G5, material=Steel
1.,
*End Part
**  
**
** ASSEMBLY
**
*Assembly, name=Assembly
**  
*Instance, name=PlateInstance, part=PlatePart
*End Instance
**  
*Node
      1,           0.,  0.600000024,           0.
*Nset, nset=RP
 1,
*Nset, nset=bottom_nodes, instance=PlateInstance
   1,   2,   3,   4,   5,   6,   7,   8,   9,  10,  11,  12,  13,  14,  15,  16
  17,  18,  19,  20,  21,  22,  23,  24,  25,  26,  27, 658, 659, 660, 661, 662
 663, 664, 665, 666, 667, 668, 669, 670, 671, 672, 673, 674, 675, 676, 677, 678
 679, 680
*Elset, elset=bottom_nodes, instance=PlateInstance
   70,  145,  148,  149,  150,  152,  154,  156,  158,  160,  162,  165,  166,  169,  707,  709
  710,  718, 1099, 1101, 1102, 1103, 1104, 1106, 1107, 1108, 1109, 1110, 1111, 1112, 1170, 1175
 1176, 1220, 1416, 1435, 1446, 1447, 1453, 1457, 1458, 1460, 1465, 1490, 1559, 1561, 1701, 2105
 2106,
*Nset, nset=top_nodes, instance=PlateInstance
  53,  54,  55,  56,  57,  58,  59,  60,  61,  62,  63,  64,  65,  66,  67,  68
  69,  70,  71,  72,  73,  74,  75,  76,  77,  78,  79, 700, 701, 702, 703, 704
 705, 706, 707, 708, 709, 710, 711, 712, 713, 714, 715, 716, 717, 718, 719, 720
 721, 722, 723, 724
*Elset, elset=top_nodes, instance=PlateInstance
   20,  114,  115,  116,  118,  190,  210,  231,  248,  266,  283,  298,  313,  328,  340,  341
  354,  363,  364,  372,  380,  381,  390,  396,  397,  404,  409,  413,  417,  420, 1115, 1126
 1128, 1129, 1130, 1131, 1132, 1133, 1134, 1135, 1136, 1137, 1138, 1139, 1140, 1141, 1142, 1143
 1177, 1210, 1475
** Constraint: shear_coupling
*Equation
2
top_nodes, 1, 1.
RP, 1, -1.
*End Assembly
** 
** MATERIALS
** 
*Material, name=Steel
*Elastic
210000., 0.3
** 
** BOUNDARY CONDITIONS
** 
** Name: bottom_fix Type: Displacement/Rotation
*Boundary
bottom_nodes, 1, 1
bottom_nodes, 2, 2
** Name: top_vertical_fix Type: Displacement/Rotation
*Boundary
top_nodes, 2, 2
** ----------------------------------------------------------------
** 
** STEP: Step-1
** 
*Step, name=Step-1, nlgeom=NO
*Static
0.001, 1., 1e-05, 1.
** 
** BOUNDARY CONDITIONS
** 
** Name: prescribed_shear Type: Displacement/Rotation
*Boundary
RP, 1, 1, 0.001
** 
** OUTPUT REQUESTS
** 
*Restart, write, frequency=0
** 
** FIELD OUTPUT: F-Output-1
** 
*Output, field
*Node Output
RF, U
*Element Output, directions=YES
EVOL, MISESAVG, MISESERI, S
** 
** FIELD OUTPUT:  from REMESHING RULE: F43REM4_MM_ONLY_RULE
** 
*Output, field, frequency=99999
*Element Output, directions=YES
MISESERI, MISESAVG, S, EVOL
** 
** HISTORY OUTPUT: H-Output-1
** 
*Output, history, variable=PRESELECT
*End Step
