*Heading
** Job name: Mode-II Pandey-Kumar MISESERI pre-analysis name: Stage-F-MISESERI-Preanalysis
** Auxiliary continuum: CPS4 4-node plane stress elements (N_elem = 3930)
** Corrected notch topology: 15 coincident node pairs along y=0, x in [-0.5, 0.0) mm
*Preprint, echo=NO, model=NO, history=NO, contact=NO
*Part, name=Part-1
*Node
      1,    0.5000000000,    0.5000000000
      2,    0.0000000000,    0.0000000000
      3,   -0.5000000000,    0.0000000000
      4,   -0.5000000000,   -0.5000000000
      5,    0.5000000000,   -0.5000000000
      6,    0.5000000000,    0.5000000000
      7,   -0.5000000000,    0.5000000000
      8,   -0.5000000000,    0.0000000000
      9,    0.4950495060,    0.0000000000
     10,    0.4900990130,    0.0000000000
     11,    0.4851485190,    0.0000000000
     12,    0.4801980260,    0.0000000000
     13,    0.4752475320,    0.0000000000
     14,    0.4702970390,    0.0000000000
     15,    0.4653465450,    0.0000000000
     16,    0.4603960510,    0.0000000000
     17,    0.4554455580,    0.0000000000
     18,    0.4504950640,    0.0000000000
     19,    0.4455445410,    0.0000000000
     20,    0.4405940470,    0.0000000000
** ... 3978 like lines cut
*Element, TYPE=CPS4, elset=All_elem
      1,      10,     397,     450,       9
      2,     350,      14,      15,     393
      3,     263,    1352,    1291,    1901
      4,    1740,    1775,     293,    1739
      5,     164,    1739,    1741,     163
      6,    1738,    1777,     324,    1737
      7,     161,    1737,    1736,     160
      8,    1742,     159,     160,    1736
      9,     158,    1803,     157,       5
     10,     387,      22,      23,     386
     11,    1217,    1141,    1288,    1146
     12,     278,    1902,    1634,    1915
     13,     293,    1775,    1726,    1710
     14,     308,    1704,    1699,    1931
     15,    1786,    1820,     324,    1777
     16,    1820,    1865,    1798,     324
     17,    1736,    1798,     349,    1742
     18,     155,    1751,    1750,     154
     19,    1751,     155,     156,    1831
     20,    1750,    1751,    1776,    1779
** ... 3910 like lines cut
*Nset, nset=bottom
4, 5, 134, 135, 136, 137, 138, 139, 140, 141, 142, 143, 144, 145, 146, 147
148, 149, 150, 151, 152, 153, 154, 155, 156, 157
*Nset, nset=top
1, 6, 7, 186, 187, 188, 189, 190, 191, 192, 193, 194, 195, 196, 197, 198
199, 200, 201, 202, 203, 204, 205, 206, 207, 208, 209
*Nset, nset=notch_lower_face
3, 122, 121, 120, 119, 118, 117, 116, 115, 114, 113, 112, 111, 110, 109
*Nset, nset=notch_upper_face
8, 221, 222, 223, 224, 225, 226, 227, 228, 229, 230, 231, 232, 233, 234
*Nset, nset=notch_tip
2
*Solid Section, elset=All_elem, material=Elastic_Matrix
1.
*End Part
*Assembly, name=Assembly
*Instance, name=Part-1-1, part=Part-1
*End Instance
*Node
      3999,              0.,             0.5,              0.
*Nset, nset=RP
3999
*Nset, nset=bottom, instance=Part-1-1
4, 5, 134, 135, 136, 137, 138, 139, 140, 141, 142, 143, 144, 145, 146, 147
148, 149, 150, 151, 152, 153, 154, 155, 156, 157
*Nset, nset=top, instance=Part-1-1
1, 6, 7, 186, 187, 188, 189, 190, 191, 192, 193, 194, 195, 196, 197, 198
199, 200, 201, 202, 203, 204, 205, 206, 207, 208, 209
*Equation
2
top, 1, 1.
RP, 1, -1.
*End Assembly
*Material, name=Elastic_Matrix
*Elastic
 210., 0.3
*Step, name=Step-1, nlgeom=NO
Elastic MISESERI Pre-Analysis Stage
*Static
0.1, 1.0, 1e-05, 0.1
*Boundary
bottom, 1, 2
top, 2, 2
*Boundary
RP, 1, 1, 0.001
*Output, field, frequency=1
*Node Output
 U, RF
*Element Output, elset=All_elem
 MISESERI, MISESAVG, S, E, EVOL
*End Step
