 Abaqus/Standard 2023                  DATE 22-Jul-2026 TIME 10:19:24
 SUMMARY OF JOB INFORMATION:
 STEP  INC ATT SEVERE EQUIL TOTAL  TOTAL      STEP       INC OF       DOF    IF
               DISCON ITERS ITERS  TIME/    TIME/LPF    TIME/LPF    MONITOR RIKS
               ITERS               FREQ
   1     1   1     0     1     1  1.00       1.00       1.000     
   2     1   1     0     1     1  1.50       0.500      0.5000    
   2     2   1     0     1     1  2.00       1.00       0.5000    
   3     1   1U    0     9     9  2.00       0.00       0.5000    
   3     1   2U    0    16    16  2.00       0.00       0.2500    
   3     1   3     0     7     7  2.06       0.0625     0.06250   
   3     2   1     0     1     1  2.12       0.125      0.06250   
                          
 THE ANALYSIS HAS NOT BEEN COMPLETED
