*Heading
 F43REM4 Refined Standard Input Deck F43REM4_PK5
** Job name: F43REM4_PK5 Model name: ModeII_Geometry_Model
** Generated by: Abaqus/CAE 2023
*Preprint, echo=NO, model=NO, history=NO, contact=NO
**
** PARTS
**
*Part, name=PlatePart
*Node
      1,  0.461913496,         -0.5
      2,  0.432268918,         -0.5
      3,  0.389590442,         -0.5
      4,  0.356396973,         -0.5
      5,  0.322738826,         -0.5
      6,  0.288206816,         -0.5
      7,  0.252568185,         -0.5
      8,  0.216060072,         -0.5
      9,  0.179070532,         -0.5
     10,  0.143845707,         -0.5
     11,  0.109536678,         -0.5
     12,  0.075659126,         -0.5
     13, 0.0421259403,         -0.5
     14, 0.00830894709,         -0.5
     15, -0.0443062186,         -0.5
     16, -0.0803045034,         -0.5
     17, -0.0983197689,         -0.5
     18, -0.134058058,         -0.5
     19, -0.186445236,         -0.5
     20, -0.221780837,         -0.5
** ... 4978 like lines cut
*Element, type=CPE3
  1, 4741, 4691, 3313
  2, 3781,  272, 3754
  3, 1449, 1372, 1430
  4, 3125, 2946, 3106
  5, 4830, 4231, 4197
  6, 4785, 3376, 3304
  7, 3059, 2909, 2934
  8, 4310, 4275, 4302
  9, 4191, 2596, 3926
 10, 2558, 2395, 2470
 11, 3046, 2997, 2944
 12, 4534, 3851, 2780
 13, 4006, 2947, 2475
 14, 3693,  700, 3666
 15, 4359,  787, 1166
 16, 4365, 1220, 4359
 17, 4402, 1297, 1253
 18, 1287, 1259, 1280
 19, 1291, 1251, 1266
 20, 1389, 1355, 1387
** ... 108 like lines cut
*Element, type=CPE4
 129,  824,  979, 1017,  825
 130,  945,  992, 1000,  114
 131,  947, 1031, 1215,  115
 132, 1327,  203, 1860, 1573
 133,  117, 1615, 1613,  950
 134,  950, 1613, 1651,  118
 135,  951, 1709, 1896,  119
 136,  120, 1886, 1719,  953
 137,  121, 1689, 1650,  954
 138,  122, 1609, 1589,  955
 139, 1578, 1580, 1837, 1952
 140, 1579,  124,  956, 1578
 141, 1718, 1652, 1872,  430
 142, 1898, 2265,  456, 1897
 143,  920,   99,  959, 1897
 144,   27, 1005,  997,  822
 145, 1096, 1086, 1005, 1018
 146, 1159, 1169, 1243,  153
 147,  176, 4415, 4375, 1551
 148, 4379, 2201, 1962, 2107
** ... 4746 like lines cut
*Nset, nset=_G5, internal, generate
    1,  4998,     1
*Elset, elset=_G5, internal, generate
    1,  4894,     1
** Section: SolidSection
*Solid Section, elset=_G5, material=Steel
1.,
*End Part
**  
**
** ASSEMBLY
**
*Assembly, name=Assembly
**  
*Instance, name=PlateInstance, part=PlatePart
*End Instance
**  
*Node
      1,           0.,  0.600000024,           0.
*Nset, nset=RP
 1,
*Nset, nset=bottom_nodes, instance=PlateInstance
   1,   2,   3,   4,   5,   6,   7,   8,   9,  10,  11,  12,  13,  14,  15,  16
  17,  18,  19,  20,  21,  22,  23,  24,  25,  26,  27,  28,  29, 788, 789, 790
 791, 792, 793, 794, 795, 796, 797, 798, 799, 800, 801, 802, 803, 804, 805, 806
 807, 808, 809, 810, 811, 812, 813, 814, 815, 816, 817, 818, 819, 820, 821, 822
 823, 824, 825
*Elset, elset=bottom_nodes, instance=PlateInstance
  129,  144,  159,  189,  204,  218,  233,  247,  263,  277,  290,  291,  305,  320,  349,  388
  415,  442,  469,  497,  524,  549,  550,  575,  603,  630,  656,  685, 1460, 1461, 1462, 1463
 1464, 1465, 1466, 1468, 1469, 1470, 1471, 1472, 1473, 1474, 1475, 1476, 1477, 1478, 1479, 1480
 1481, 1482, 1483, 1484, 1485, 1486, 1487, 1488, 1489, 1490, 1491, 1492, 1606, 1621, 1692, 2101
 2294, 2457
*Nset, nset=top_nodes, instance=PlateInstance
  57,  58,  59,  60,  61,  62,  63,  64,  65,  66,  67,  68,  69,  70,  71,  72
  73,  74,  75,  76,  77,  78,  79,  80,  81,  82,  83,  84,  85, 863, 864, 865
 866, 867, 868, 869, 870, 871, 872, 873, 874, 875, 876, 877, 878, 879, 880, 881
 882, 883, 884, 885, 886, 887, 888, 889, 890, 891, 892, 893, 894, 895, 896, 897
 898, 899, 900, 901
*Elset, elset=top_nodes, instance=PlateInstance
  345,  347,  372,  374,  413,  467,  495,  522,  523,  548,  572,  600,  628,  653,  682,  717
  728,  740,  751,  760,  768,  776,  781,  787,  791,  792,  796, 1494, 1524, 1525, 1526, 1527
 1528, 1529, 1530, 1531, 1532, 1533, 1534, 1535, 1536, 1537, 1538, 1539, 1540, 1541, 1542, 1543
 1544, 1545, 1546, 1547, 1548, 1549, 1550, 1551, 1552, 1553, 1554, 1555, 1556, 1557, 1558, 1636
 1649, 2278, 2461
** Constraint: shear_coupling
*Equation
2
top_nodes, 1, 1.
RP, 1, -1.
*End Assembly
** 
** MATERIALS
** 
*Material, name=Steel
*Elastic
210000., 0.3
** 
** BOUNDARY CONDITIONS
** 
** Name: bottom_fix Type: Displacement/Rotation
*Boundary
bottom_nodes, 1, 1
bottom_nodes, 2, 2
** Name: top_vertical_fix Type: Displacement/Rotation
*Boundary
top_nodes, 2, 2
** ----------------------------------------------------------------
** 
** STEP: Step-1
** 
*Step, name=Step-1, nlgeom=NO
*Static
0.001, 1., 1e-05, 1.
** 
** BOUNDARY CONDITIONS
** 
** Name: prescribed_shear Type: Displacement/Rotation
*Boundary
RP, 1, 1, 0.001
** 
** OUTPUT REQUESTS
** 
*Restart, write, frequency=0
** 
** FIELD OUTPUT: F-Output-1
** 
*Output, field
*Node Output
RF, U
*Element Output, directions=YES
EVOL, MISESAVG, MISESERI, S
** 
** FIELD OUTPUT:  from REMESHING RULE: F43REM4_PK5_ONLY_RULE
** 
*Output, field, frequency=99999
*Element Output, directions=YES
MISESERI, MISESAVG, S, EVOL
** 
** HISTORY OUTPUT: H-Output-1
** 
*Output, history, variable=PRESELECT
*End Step
