*Heading
** Stage C C2A auxiliary continuum H0 MISESERI pre-analysis
** No UEL, no UMAT, no residual stiffness
** physical_elements=3930
** U_pre_mm=0.00464
** units: mm, N, MPa (E=210000 MPa, nu=0.3)
** element: CPE4 plane strain
*Preprint, echo=NO, model=NO, history=NO, contact=NO
*Part, name=Part-1
*Node
1, 0.5, 0
2, 0, 0
3, -0.5, -4.99999987e-05
4, -0.5, -0.5
5, 0.5, -0.5
6, 0.5, 0.5
7, -0.5, 0.5
8, -0.5, 4.99999987e-05
9, 0.495049506, 0
10, 0.490099013, 0
11, 0.485148519, 0
12, 0.480198026, 0
13, 0.475247532, 0
14, 0.470297039, 0
15, 0.465346545, 0
16, 0.460396051, 0
17, 0.455445558, 0
18, 0.450495064, 0
19, 0.445544541, 0
20, 0.440594047, 0
** ... 3978 like lines cut
*Element, type=CPE4, elset=PLATE
1, 10, 397, 450, 9
2, 350, 14, 15, 393
3, 263, 1352, 1291, 1901
4, 1740, 1775, 293, 1739
5, 164, 1739, 1741, 163
6, 1738, 1777, 324, 1737
7, 161, 1737, 1736, 160
8, 1742, 159, 160, 1736
9, 158, 1803, 157, 5
10, 387, 22, 23, 386
11, 1217, 1141, 1288, 1146
12, 278, 1902, 1634, 1915
13, 293, 1775, 1726, 1710
14, 308, 1704, 1699, 1931
15, 1786, 1820, 324, 1777
16, 1820, 1865, 1798, 324
17, 1736, 1798, 349, 1742
18, 155, 1751, 1750, 154
19, 1751, 155, 156, 1831
20, 1750, 1751, 1776, 1779
** ... 3910 like lines cut
*Elset, elset=PLATE, generate
1, 3930, 1
*Elset, elset=All_elem, generate
1, 3930, 1
*Solid Section, elset=PLATE, material=Steel
,
*End Part
*Assembly, name=Assembly
*Instance, name=Part-1-1, part=Part-1
*End Instance
*Node
3999, 0.5, 0.5, 0.0
*Nset, nset=RP
3999,
*Nset, nset=bottom, instance=Part-1-1
     4,      5,    134,    135,    136,    137,    138,    139,    140,    141,    142,    143,    144,    145,    146,    147
   148,    149,    150,    151,    152,    153,    154,    155,    156,    157
*Nset, nset=top, instance=Part-1-1
     6,      7,    186,    187,    188,    189,    190,    191,    192,    193,    194,    195,    196,    197,    198,    199
   200,    201,    202,    203,    204,    205,    206,    207,    208,    209
*Nset, nset=bottoml, instance=Part-1-1
     4
*Nset, nset=topl, instance=Part-1-1
     7
*Elset, elset=PLATE, instance=Part-1-1, generate
1, 3930, 1
*Elset, elset=All_elem, instance=Part-1-1, generate
1, 3930, 1
*Equation
2
top, 2, 1.
RP, 2, -1.
*End Assembly
** U_pre = 0.00464 mm
*Amplitude, name=Amp-pre
0., 0., 1., 0.00464
*Material, name=Steel
*Elastic
210000.0, 0.3
*Step, name=Step-pre, nlgeom=NO, inc=200
*Static, direct
0.005, 1.0,
*Boundary, amplitude=Amp-pre
RP, 2, 2, 1.
*Boundary
bottom, 2, 2
*Boundary
bottoml, 1, 1
*Boundary
topl, 1, 1
*Restart, write, frequency=0
*Output, field, time interval=0.05
*Node Output
U,
*Node Output, nset=RP
RF, U
*Element Output, elset=PLATE
S, EVOL, MISESERI, MISESAVG
*End Step
