1

   Abaqus 2024                                  Date 14-Jul-2026   Time 10:35:11
   For use by Supplied by Team-SolidSQUAD under license from Dassault Systemes or its subsidiary.

                                                                                 
                                                                                 
 STEP    1     INCREMENT     1     STEP TIME    0.00    


                        S T E P       1     S T A T I C   A N A L Y S I S


                                                                                          

          FIXED TIME INCREMENTS
          TIME INCREMENT IS                                    1.000E-03
          TIME PERIOD IS                                        1.00    

     LINEAR EQUATION SOLVER TYPE         DIRECT SPARSE

 CONVERGENCE TOLERANCE PARAMETERS FOR FORCE    
     CRITERION FOR RESIDUAL FORCE     FOR A NONLINEAR PROBLEM          5.000E-03
     CRITERION FOR DISP.    CORRECTION IN A NONLINEAR PROBLEM          1.000E-02
     INITIAL VALUE OF TIME AVERAGE FORCE                               1.000E-02
     AVERAGE FORCE     IS TIME AVERAGE FORCE    
     ALTERNATE CRIT. FOR RESIDUAL FORCE     FOR A NONLINEAR PROBLEM    2.000E-02
     CRITERION FOR ZERO FORCE     RELATIVE TO TIME AVRG. FORCE         1.000E-05
     CRITERION FOR RESIDUAL FORCE     WHEN THERE IS ZERO FLUX          1.000E-05
     CRITERION FOR DISP.    CORRECTION WHEN THERE IS ZERO FLUX         1.000E-03
     CRITERION FOR RESIDUAL FORCE     FOR A LINEAR INCREMENT           1.000E-08
     FIELD CONVERSION RATIO                                             1.00    
     CRITERION FOR ZERO FORCE     REL. TO TIME AVRG. MAX. FORCE        1.000E-05
     CRITERION FOR ZERO DISP.    RELATIVE TO CHARACTERISTIC LENGTH     1.000E-08

     VOLUMETRIC STRAIN COMPATIBILITY TOLERANCE FOR HYBRID SOLIDS       1.000E-05
     AXIAL STRAIN COMPATIBILITY TOLERANCE FOR HYBRID BEAMS             1.000E-05
     TRANS. SHEAR STRAIN COMPATIBILITY TOLERANCE FOR HYBRID BEAMS      1.000E-05
     SOFT CONTACT CONSTRAINT COMPATIBILITY TOLERANCE FOR P>P0          5.000E-03
     SOFT CONTACT CONSTRAINT COMPATIBILITY TOLERANCE FOR P=0.0         0.100    
     CONTACT FORCE ERROR TOLERANCE FOR CONVERT SDI=YES                 1.00    
     DISPLACEMENT COMPATIBILITY TOLERANCE FOR DCOUP ELEMENTS           1.000E-05
     ROTATION COMPATIBILITY TOLERANCE FOR DCOUP ELEMENTS               1.000E-05

 EQUILIBRIUM WILL BE CHECKED FOR SEVERE DISCONTINUITY ITERATIONS

 ITERATION CONTROL PARAMETERS:
     FIRST EQUILIBRIUM ITERATION FOR CONSECUTIVE DIVERGENCE CHECK              4
     EQUILIBRIUM ITERATION AFTER WHICH ALTERNATE RESIDUAL IS USED              9
     MAXIMUM EQUILIBRIUM ITERATIONS ALLOWED                                   16
     MAXIMUM ITERATIONS FOR SEVERE DISCONTINUITIES                            12
     GLOBAL STABILIZATION CONTROL IS NOT USED

          PRINT OF INCREMENT NUMBER, TIME, ETC., EVERY    1  INCREMENTS

     THE MAXIMUM NUMBER OF INCREMENTS IN THIS STEP IS                    1000

     LINEAR EXTRAPOLATION WILL BE USED

     CHARACTERISTIC ELEMENT LENGTH      1.00    

     DETAILS REGARDING ACTUAL SOLUTION WAVEFRONT REQUESTED

     DETAILED OUTPUT OF DIAGNOSTICS TO DATABASE REQUESTED

     PRINT OF INCREMENT NUMBER, TIME, ETC., TO THE MESSAGE FILE EVERY     1  INCREMENTS

     COLLECTING MODEL CONSTRAINT INFORMATION FOR OVERCONSTRAINT CHECKS

     COLLECTING STEP CONSTRAINT INFORMATION FOR OVERCONSTRAINT CHECKS


  INCREMENT     1 STARTS. ATTEMPT NUMBER  1, TIME INCREMENT  1.000E-03
 
	SYMMETRIC NEW DIRECT SPARSE SOLVER RUNNING ON
 	1 HOST x 1 MPI RANK PER HOST x 1 THREAD PER RANK
        NUMBER OF EQUATIONS:  12
        NUMBER OF RHS:        1
        NUMBER OF FLOPS:      6.500e+02
        SOLVER ELAPSED TIME:  2ms

               CONVERGENCE CHECKS FOR EQUILIBRIUM ITERATION     1


 AVERAGE FORCE                      4.038E-03   TIME AVG. FORCE       4.038E-03
 ALL FORCE     RESIDUALS ARE ZERO
 LARGEST INCREMENT OF DISP.         1.000E-04   AT NODE          3   DOF  2
   INSTANCE: ELEM-1                                                                          
 LARGEST CORRECTION TO DISP.        1.000E-04   AT NODE          3   DOF  2
   INSTANCE: ELEM-1                                                                          
          THE FORCE     EQUILIBRIUM RESPONSE WAS LINEAR IN THIS INCREMENT

 ITERATION SUMMARY FOR THE INCREMENT:   1 TOTAL ITERATIONS, OF WHICH
   0 ARE SEVERE DISCONTINUITY ITERATIONS AND  1 ARE EQUILIBRIUM ITERATIONS.

 TIME INCREMENT COMPLETED  1.000E-03,  FRACTION OF STEP COMPLETED  1.000E-03
 STEP TIME COMPLETED       1.000E-03,  TOTAL TIME COMPLETED        1.000E-03


  INCREMENT     2 STARTS. ATTEMPT NUMBER  1, TIME INCREMENT  1.000E-03
 
	SYMMETRIC NEW DIRECT SPARSE SOLVER RUNNING ON
 	1 HOST x 1 MPI RANK PER HOST x 1 THREAD PER RANK
        NUMBER OF EQUATIONS:  12
        NUMBER OF RHS:        1
        NUMBER OF FLOPS:      6.500e+02
        SOLVER ELAPSED TIME:  0ms

               CONVERGENCE CHECKS FOR EQUILIBRIUM ITERATION     1


 AVERAGE FORCE                      2.019E-02   TIME AVG. FORCE       1.212E-02
 LARGEST SCALED RESIDUAL FORCE     -3.996E-11   AT NODE          3   DOF  3
   INSTANCE: ELEM-1                                                                          
  CORRESPONDING RESIDUAL FORCE     -3.996E-11
 LARGEST INCREMENT OF DISP.         1.000E-04   AT NODE          3   DOF  2
   INSTANCE: ELEM-1                                                                          
 LARGEST CORRECTION TO DISP.        5.654E-05   AT NODE          3   DOF  3
   INSTANCE: ELEM-1                                                                          
          THE FORCE     EQUILIBRIUM RESPONSE WAS LINEAR IN THIS INCREMENT

 ITERATION SUMMARY FOR THE INCREMENT:   1 TOTAL ITERATIONS, OF WHICH
   0 ARE SEVERE DISCONTINUITY ITERATIONS AND  1 ARE EQUILIBRIUM ITERATIONS.

 TIME INCREMENT COMPLETED  1.000E-03,  FRACTION OF STEP COMPLETED  2.000E-03
 STEP TIME COMPLETED       2.000E-03,  TOTAL TIME COMPLETED        2.000E-03


  INCREMENT     3 STARTS. ATTEMPT NUMBER  1, TIME INCREMENT  1.000E-03
 
	SYMMETRIC NEW DIRECT SPARSE SOLVER RUNNING ON
 	1 HOST x 1 MPI RANK PER HOST x 1 THREAD PER RANK
        NUMBER OF EQUATIONS:  12
        NUMBER OF RHS:        1
        NUMBER OF FLOPS:      6.500e+02
        SOLVER ELAPSED TIME:  0ms

               CONVERGENCE CHECKS FOR EQUILIBRIUM ITERATION     1


 AVERAGE FORCE                      3.029E-02   TIME AVG. FORCE       1.817E-02
 LARGEST SCALED RESIDUAL FORCE     -3.196E-10   AT NODE          2   DOF  3
   INSTANCE: ELEM-1                                                                          
  CORRESPONDING RESIDUAL FORCE     -3.196E-10
 LARGEST INCREMENT OF DISP.         1.696E-04   AT NODE          2   DOF  3
   INSTANCE: ELEM-1                                                                          
 LARGEST CORRECTION TO DISP.        1.131E-04   AT NODE          2   DOF  3
   INSTANCE: ELEM-1                                                                          
 ESTIMATE OF DISP.    CORRECTION   -2.557E-08
 FORCE     EQUILIB. ACCEPTED BASED ON SMALL RESIDUAL AND ESTIMATED CORRECTION

 ITERATION SUMMARY FOR THE INCREMENT:   1 TOTAL ITERATIONS, OF WHICH
   0 ARE SEVERE DISCONTINUITY ITERATIONS AND  1 ARE EQUILIBRIUM ITERATIONS.

 TIME INCREMENT COMPLETED  1.000E-03,  FRACTION OF STEP COMPLETED  3.000E-03
 STEP TIME COMPLETED       3.000E-03,  TOTAL TIME COMPLETED        3.000E-03


  INCREMENT     4 STARTS. ATTEMPT NUMBER  1, TIME INCREMENT  1.000E-03
 
	SYMMETRIC NEW DIRECT SPARSE SOLVER RUNNING ON
 	1 HOST x 1 MPI RANK PER HOST x 1 THREAD PER RANK
        NUMBER OF EQUATIONS:  12
        NUMBER OF RHS:        1
        NUMBER OF FLOPS:      6.500e+02
        SOLVER ELAPSED TIME:  1ms

               CONVERGENCE CHECKS FOR EQUILIBRIUM ITERATION     1


 AVERAGE FORCE                      4.037E-02   TIME AVG. FORCE       2.372E-02
 LARGEST SCALED RESIDUAL FORCE     -3.278E-23   AT NODE          3   DOF  3
   INSTANCE: ELEM-1                                                                          
  CORRESPONDING RESIDUAL FORCE     -3.278E-23
 LARGEST INCREMENT OF DISP.         2.825E-04   AT NODE          4   DOF  3
   INSTANCE: ELEM-1                                                                          
 LARGEST CORRECTION TO DISP.        1.129E-04   AT NODE          4   DOF  3
   INSTANCE: ELEM-1                                                                          
          THE FORCE     EQUILIBRIUM RESPONSE WAS LINEAR IN THIS INCREMENT

 ITERATION SUMMARY FOR THE INCREMENT:   1 TOTAL ITERATIONS, OF WHICH
   0 ARE SEVERE DISCONTINUITY ITERATIONS AND  1 ARE EQUILIBRIUM ITERATIONS.

 TIME INCREMENT COMPLETED  1.000E-03,  FRACTION OF STEP COMPLETED  4.000E-03
 STEP TIME COMPLETED       4.000E-03,  TOTAL TIME COMPLETED        4.000E-03


  INCREMENT     5 STARTS. ATTEMPT NUMBER  1, TIME INCREMENT  1.000E-03
 
	SYMMETRIC NEW DIRECT SPARSE SOLVER RUNNING ON
 	1 HOST x 1 MPI RANK PER HOST x 1 THREAD PER RANK
        NUMBER OF EQUATIONS:  12
        NUMBER OF RHS:        1
        NUMBER OF FLOPS:      6.500e+02
        SOLVER ELAPSED TIME:  0ms

               CONVERGENCE CHECKS FOR EQUILIBRIUM ITERATION     1


 AVERAGE FORCE                      5.043E-02   TIME AVG. FORCE       2.906E-02
 LARGEST SCALED RESIDUAL FORCE     -5.580E-10   AT NODE          4   DOF  3
   INSTANCE: ELEM-1                                                                          
  CORRESPONDING RESIDUAL FORCE     -5.580E-10
 LARGEST INCREMENT OF DISP.         3.953E-04   AT NODE          2   DOF  3
   INSTANCE: ELEM-1                                                                          
 LARGEST CORRECTION TO DISP.        1.128E-04   AT NODE          2   DOF  3
   INSTANCE: ELEM-1                                                                          
 ESTIMATE OF DISP.    CORRECTION   -4.462E-08
 FORCE     EQUILIB. ACCEPTED BASED ON SMALL RESIDUAL AND ESTIMATED CORRECTION

 ITERATION SUMMARY FOR THE INCREMENT:   1 TOTAL ITERATIONS, OF WHICH
   0 ARE SEVERE DISCONTINUITY ITERATIONS AND  1 ARE EQUILIBRIUM ITERATIONS.

 TIME INCREMENT COMPLETED  1.000E-03,  FRACTION OF STEP COMPLETED  5.000E-03
 STEP TIME COMPLETED       5.000E-03,  TOTAL TIME COMPLETED        5.000E-03


  INCREMENT     6 STARTS. ATTEMPT NUMBER  1, TIME INCREMENT  1.000E-03
 
	SYMMETRIC NEW DIRECT SPARSE SOLVER RUNNING ON
 	1 HOST x 1 MPI RANK PER HOST x 1 THREAD PER RANK
        NUMBER OF EQUATIONS:  12
        NUMBER OF RHS:        1
        NUMBER OF FLOPS:      6.500e+02
        SOLVER ELAPSED TIME:  1ms

               CONVERGENCE CHECKS FOR EQUILIBRIUM ITERATION     1


 AVERAGE FORCE                      6.047E-02   TIME AVG. FORCE       3.430E-02
 LARGEST SCALED RESIDUAL FORCE     -2.306E-21   AT NODE          4   DOF  3
   INSTANCE: ELEM-1                                                                          
  CORRESPONDING RESIDUAL FORCE     -2.306E-21
 LARGEST INCREMENT OF DISP.         5.076E-04   AT NODE          4   DOF  3
   INSTANCE: ELEM-1                                                                          
 LARGEST CORRECTION TO DISP.        1.124E-04   AT NODE          4   DOF  3
   INSTANCE: ELEM-1                                                                          
          THE FORCE     EQUILIBRIUM RESPONSE WAS LINEAR IN THIS INCREMENT

 ITERATION SUMMARY FOR THE INCREMENT:   1 TOTAL ITERATIONS, OF WHICH
   0 ARE SEVERE DISCONTINUITY ITERATIONS AND  1 ARE EQUILIBRIUM ITERATIONS.

 TIME INCREMENT COMPLETED  1.000E-03,  FRACTION OF STEP COMPLETED  6.000E-03
 STEP TIME COMPLETED       6.000E-03,  TOTAL TIME COMPLETED        6.000E-03


  INCREMENT     7 STARTS. ATTEMPT NUMBER  1, TIME INCREMENT  1.000E-03
 
	SYMMETRIC NEW DIRECT SPARSE SOLVER RUNNING ON
 	1 HOST x 1 MPI RANK PER HOST x 1 THREAD PER RANK
        NUMBER OF EQUATIONS:  12
        NUMBER OF RHS:        1
        NUMBER OF FLOPS:      6.500e+02
        SOLVER ELAPSED TIME:  1ms

               CONVERGENCE CHECKS FOR EQUILIBRIUM ITERATION     1


 AVERAGE FORCE                      7.047E-02   TIME AVG. FORCE       3.946E-02
 LARGEST SCALED RESIDUAL FORCE     -8.725E-10   AT NODE          3   DOF  3
   INSTANCE: ELEM-1                                                                          
  CORRESPONDING RESIDUAL FORCE     -8.725E-10
 LARGEST INCREMENT OF DISP.         6.199E-04   AT NODE          1   DOF  3
   INSTANCE: ELEM-1                                                                          
 LARGEST CORRECTION TO DISP.        1.122E-04   AT NODE          3   DOF  3
   INSTANCE: ELEM-1                                                                          
 ESTIMATE OF DISP.    CORRECTION   -6.970E-08
 FORCE     EQUILIB. ACCEPTED BASED ON SMALL RESIDUAL AND ESTIMATED CORRECTION

 ITERATION SUMMARY FOR THE INCREMENT:   1 TOTAL ITERATIONS, OF WHICH
   0 ARE SEVERE DISCONTINUITY ITERATIONS AND  1 ARE EQUILIBRIUM ITERATIONS.

 TIME INCREMENT COMPLETED  1.000E-03,  FRACTION OF STEP COMPLETED  7.000E-03
 STEP TIME COMPLETED       7.000E-03,  TOTAL TIME COMPLETED        7.000E-03


  INCREMENT     8 STARTS. ATTEMPT NUMBER  1, TIME INCREMENT  1.000E-03
 
	SYMMETRIC NEW DIRECT SPARSE SOLVER RUNNING ON
 	1 HOST x 1 MPI RANK PER HOST x 1 THREAD PER RANK
        NUMBER OF EQUATIONS:  12
        NUMBER OF RHS:        1
        NUMBER OF FLOPS:      6.500e+02
        SOLVER ELAPSED TIME:  1ms

               CONVERGENCE CHECKS FOR EQUILIBRIUM ITERATION     1


 AVERAGE FORCE                      8.044E-02   TIME AVG. FORCE       4.459E-02
 LARGEST SCALED RESIDUAL FORCE     -6.563E-21   AT NODE          4   DOF  3
   INSTANCE: ELEM-1                                                                          
  CORRESPONDING RESIDUAL FORCE     -6.563E-21
 LARGEST INCREMENT OF DISP.         7.314E-04   AT NODE          2   DOF  3
   INSTANCE: ELEM-1                                                                          
 LARGEST CORRECTION TO DISP.        1.116E-04   AT NODE          2   DOF  3
   INSTANCE: ELEM-1                                                                          
          THE FORCE     EQUILIBRIUM RESPONSE WAS LINEAR IN THIS INCREMENT

 ITERATION SUMMARY FOR THE INCREMENT:   1 TOTAL ITERATIONS, OF WHICH
   0 ARE SEVERE DISCONTINUITY ITERATIONS AND  1 ARE EQUILIBRIUM ITERATIONS.

 TIME INCREMENT COMPLETED  1.000E-03,  FRACTION OF STEP COMPLETED  8.000E-03
 STEP TIME COMPLETED       8.000E-03,  TOTAL TIME COMPLETED        8.000E-03


  INCREMENT     9 STARTS. ATTEMPT NUMBER  1, TIME INCREMENT  1.000E-03
 
	SYMMETRIC NEW DIRECT SPARSE SOLVER RUNNING ON
 	1 HOST x 1 MPI RANK PER HOST x 1 THREAD PER RANK
        NUMBER OF EQUATIONS:  12
        NUMBER OF RHS:        1
        NUMBER OF FLOPS:      6.500e+02
        SOLVER ELAPSED TIME:  1ms

               CONVERGENCE CHECKS FOR EQUILIBRIUM ITERATION     1


 AVERAGE FORCE                      9.036E-02   TIME AVG. FORCE       4.967E-02
 LARGEST SCALED RESIDUAL FORCE     -1.181E-09   AT NODE          2   DOF  3
   INSTANCE: ELEM-1                                                                          
  CORRESPONDING RESIDUAL FORCE     -1.181E-09
 LARGEST INCREMENT OF DISP.         8.428E-04   AT NODE          1   DOF  3
   INSTANCE: ELEM-1                                                                          
 LARGEST CORRECTION TO DISP.        1.114E-04   AT NODE          1   DOF  3
   INSTANCE: ELEM-1                                                                          
 ESTIMATE OF DISP.    CORRECTION   -9.419E-08
 FORCE     EQUILIB. ACCEPTED BASED ON SMALL RESIDUAL AND ESTIMATED CORRECTION

 ITERATION SUMMARY FOR THE INCREMENT:   1 TOTAL ITERATIONS, OF WHICH
   0 ARE SEVERE DISCONTINUITY ITERATIONS AND  1 ARE EQUILIBRIUM ITERATIONS.

 TIME INCREMENT COMPLETED  1.000E-03,  FRACTION OF STEP COMPLETED  9.000E-03
 STEP TIME COMPLETED       9.000E-03,  TOTAL TIME COMPLETED        9.000E-03


  INCREMENT    10 STARTS. ATTEMPT NUMBER  1, TIME INCREMENT  1.000E-03
 
	SYMMETRIC NEW DIRECT SPARSE SOLVER RUNNING ON
 	1 HOST x 1 MPI RANK PER HOST x 1 THREAD PER RANK
        NUMBER OF EQUATIONS:  12
        NUMBER OF RHS:        1
        NUMBER OF FLOPS:      6.500e+02
        SOLVER ELAPSED TIME:  1ms

               CONVERGENCE CHECKS FOR EQUILIBRIUM ITERATION     1


 AVERAGE FORCE                      0.100       TIME AVG. FORCE       5.473E-02
 LARGEST SCALED RESIDUAL FORCE      3.023E-22   AT NODE          3   DOF  3
   INSTANCE: ELEM-1                                                                          
  CORRESPONDING RESIDUAL FORCE      3.023E-22
 LARGEST INCREMENT OF DISP.         9.532E-04   AT NODE          1   DOF  3
   INSTANCE: ELEM-1                                                                          
 LARGEST CORRECTION TO DISP.        1.104E-04   AT NODE          3   DOF  3
   INSTANCE: ELEM-1                                                                          
          THE FORCE     EQUILIBRIUM RESPONSE WAS LINEAR IN THIS INCREMENT

 ITERATION SUMMARY FOR THE INCREMENT:   1 TOTAL ITERATIONS, OF WHICH
   0 ARE SEVERE DISCONTINUITY ITERATIONS AND  1 ARE EQUILIBRIUM ITERATIONS.

 TIME INCREMENT COMPLETED  1.000E-03,  FRACTION OF STEP COMPLETED  1.000E-02
 STEP TIME COMPLETED       1.000E-02,  TOTAL TIME COMPLETED        1.000E-02


  INCREMENT    11 STARTS. ATTEMPT NUMBER  1, TIME INCREMENT  1.000E-03
 
	SYMMETRIC NEW DIRECT SPARSE SOLVER RUNNING ON
 	1 HOST x 1 MPI RANK PER HOST x 1 THREAD PER RANK
        NUMBER OF EQUATIONS:  12
        NUMBER OF RHS:        1
        NUMBER OF FLOPS:      6.500e+02
        SOLVER ELAPSED TIME:  0ms

               CONVERGENCE CHECKS FOR EQUILIBRIUM ITERATION     1


 AVERAGE FORCE                      0.110       TIME AVG. FORCE       5.976E-02
 LARGEST SCALED RESIDUAL FORCE     -1.480E-09   AT NODE          1   DOF  3
   INSTANCE: ELEM-1                                                                          
  CORRESPONDING RESIDUAL FORCE     -1.480E-09
 LARGEST INCREMENT OF DISP.         1.063E-03   AT NODE          3   DOF  3
   INSTANCE: ELEM-1                                                                          
 LARGEST CORRECTION TO DISP.        1.102E-04   AT NODE          3   DOF  3
   INSTANCE: ELEM-1                                                                          
 ESTIMATE OF DISP.    CORRECTION   -1.179E-07
 FORCE     EQUILIB. ACCEPTED BASED ON SMALL RESIDUAL AND ESTIMATED CORRECTION

 ITERATION SUMMARY FOR THE INCREMENT:   1 TOTAL ITERATIONS, OF WHICH
   0 ARE SEVERE DISCONTINUITY ITERATIONS AND  1 ARE EQUILIBRIUM ITERATIONS.

 TIME INCREMENT COMPLETED  1.000E-03,  FRACTION OF STEP COMPLETED  1.100E-02
 STEP TIME COMPLETED       1.100E-02,  TOTAL TIME COMPLETED        1.100E-02


  INCREMENT    12 STARTS. ATTEMPT NUMBER  1, TIME INCREMENT  1.000E-03
 
	SYMMETRIC NEW DIRECT SPARSE SOLVER RUNNING ON
 	1 HOST x 1 MPI RANK PER HOST x 1 THREAD PER RANK
        NUMBER OF EQUATIONS:  12
        NUMBER OF RHS:        1
        NUMBER OF FLOPS:      6.500e+02
        SOLVER ELAPSED TIME:  1ms

               CONVERGENCE CHECKS FOR EQUILIBRIUM ITERATION     1


 AVERAGE FORCE                      0.120       TIME AVG. FORCE       6.476E-02
 LARGEST SCALED RESIDUAL FORCE      1.537E-20   AT NODE          2   DOF  3
   INSTANCE: ELEM-1                                                                          
  CORRESPONDING RESIDUAL FORCE      1.537E-20
 LARGEST INCREMENT OF DISP.         1.172E-03   AT NODE          4   DOF  3
   INSTANCE: ELEM-1                                                                          
 LARGEST CORRECTION TO DISP.        1.091E-04   AT NODE          4   DOF  3
   INSTANCE: ELEM-1                                                                          
          THE FORCE     EQUILIBRIUM RESPONSE WAS LINEAR IN THIS INCREMENT

 ITERATION SUMMARY FOR THE INCREMENT:   1 TOTAL ITERATIONS, OF WHICH
   0 ARE SEVERE DISCONTINUITY ITERATIONS AND  1 ARE EQUILIBRIUM ITERATIONS.

 TIME INCREMENT COMPLETED  1.000E-03,  FRACTION OF STEP COMPLETED  1.200E-02
 STEP TIME COMPLETED       1.200E-02,  TOTAL TIME COMPLETED        1.200E-02


  INCREMENT    13 STARTS. ATTEMPT NUMBER  1, TIME INCREMENT  1.000E-03
 
	SYMMETRIC NEW DIRECT SPARSE SOLVER RUNNING ON
 	1 HOST x 1 MPI RANK PER HOST x 1 THREAD PER RANK
        NUMBER OF EQUATIONS:  12
        NUMBER OF RHS:        1
        NUMBER OF FLOPS:      6.500e+02
        SOLVER ELAPSED TIME:  0ms

               CONVERGENCE CHECKS FOR EQUILIBRIUM ITERATION     1


 AVERAGE FORCE                      0.129       TIME AVG. FORCE       6.974E-02
 LARGEST SCALED RESIDUAL FORCE     -1.768E-09   AT NODE          4   DOF  3
   INSTANCE: ELEM-1                                                                          
  CORRESPONDING RESIDUAL FORCE     -1.768E-09
 LARGEST INCREMENT OF DISP.         1.281E-03   AT NODE          2   DOF  3
   INSTANCE: ELEM-1                                                                          
 LARGEST CORRECTION TO DISP.        1.088E-04   AT NODE          2   DOF  3
   INSTANCE: ELEM-1                                                                          
 ESTIMATE OF DISP.    CORRECTION   -1.405E-07
 FORCE     EQUILIB. ACCEPTED BASED ON SMALL RESIDUAL AND ESTIMATED CORRECTION

 ITERATION SUMMARY FOR THE INCREMENT:   1 TOTAL ITERATIONS, OF WHICH
   0 ARE SEVERE DISCONTINUITY ITERATIONS AND  1 ARE EQUILIBRIUM ITERATIONS.

 TIME INCREMENT COMPLETED  1.000E-03,  FRACTION OF STEP COMPLETED  1.300E-02
 STEP TIME COMPLETED       1.300E-02,  TOTAL TIME COMPLETED        1.300E-02


  INCREMENT    14 STARTS. ATTEMPT NUMBER  1, TIME INCREMENT  1.000E-03
 
	SYMMETRIC NEW DIRECT SPARSE SOLVER RUNNING ON
 	1 HOST x 1 MPI RANK PER HOST x 1 THREAD PER RANK
        NUMBER OF EQUATIONS:  12
        NUMBER OF RHS:        1
        NUMBER OF FLOPS:      6.500e+02
        SOLVER ELAPSED TIME:  1ms

               CONVERGENCE CHECKS FOR EQUILIBRIUM ITERATION     1


 AVERAGE FORCE                      0.139       TIME AVG. FORCE       7.469E-02
 LARGEST SCALED RESIDUAL FORCE     -9.536E-21   AT NODE          2   DOF  3
   INSTANCE: ELEM-1                                                                          
  CORRESPONDING RESIDUAL FORCE     -9.536E-21
 LARGEST INCREMENT OF DISP.         1.389E-03   AT NODE          3   DOF  3
   INSTANCE: ELEM-1                                                                          
 LARGEST CORRECTION TO DISP.        1.074E-04   AT NODE          1   DOF  3
   INSTANCE: ELEM-1                                                                          
          THE FORCE     EQUILIBRIUM RESPONSE WAS LINEAR IN THIS INCREMENT

 ITERATION SUMMARY FOR THE INCREMENT:   1 TOTAL ITERATIONS, OF WHICH
   0 ARE SEVERE DISCONTINUITY ITERATIONS AND  1 ARE EQUILIBRIUM ITERATIONS.

 TIME INCREMENT COMPLETED  1.000E-03,  FRACTION OF STEP COMPLETED  1.400E-02
 STEP TIME COMPLETED       1.400E-02,  TOTAL TIME COMPLETED        1.400E-02


  INCREMENT    15 STARTS. ATTEMPT NUMBER  1, TIME INCREMENT  1.000E-03
 
	SYMMETRIC NEW DIRECT SPARSE SOLVER RUNNING ON
 	1 HOST x 1 MPI RANK PER HOST x 1 THREAD PER RANK
        NUMBER OF EQUATIONS:  12
        NUMBER OF RHS:        1
        NUMBER OF FLOPS:      6.500e+02
        SOLVER ELAPSED TIME:  0ms

               CONVERGENCE CHECKS FOR EQUILIBRIUM ITERATION     1


 AVERAGE FORCE                      0.149       TIME AVG. FORCE       7.962E-02
 LARGEST SCALED RESIDUAL FORCE     -2.043E-09   AT NODE          4   DOF  3
   INSTANCE: ELEM-1                                                                          
  CORRESPONDING RESIDUAL FORCE     -2.043E-09
 LARGEST INCREMENT OF DISP.         1.496E-03   AT NODE          4   DOF  3
   INSTANCE: ELEM-1                                                                          
 LARGEST CORRECTION TO DISP.        1.070E-04   AT NODE          4   DOF  3
   INSTANCE: ELEM-1                                                                          
 ESTIMATE OF DISP.    CORRECTION   -1.619E-07
 FORCE     EQUILIB. ACCEPTED BASED ON SMALL RESIDUAL AND ESTIMATED CORRECTION

 ITERATION SUMMARY FOR THE INCREMENT:   1 TOTAL ITERATIONS, OF WHICH
   0 ARE SEVERE DISCONTINUITY ITERATIONS AND  1 ARE EQUILIBRIUM ITERATIONS.

 TIME INCREMENT COMPLETED  1.000E-03,  FRACTION OF STEP COMPLETED  1.500E-02
 STEP TIME COMPLETED       1.500E-02,  TOTAL TIME COMPLETED        1.500E-02


  INCREMENT    16 STARTS. ATTEMPT NUMBER  1, TIME INCREMENT  1.000E-03
 
	SYMMETRIC NEW DIRECT SPARSE SOLVER RUNNING ON
 	1 HOST x 1 MPI RANK PER HOST x 1 THREAD PER RANK
        NUMBER OF EQUATIONS:  12
        NUMBER OF RHS:        1
        NUMBER OF FLOPS:      6.500e+02
        SOLVER ELAPSED TIME:  1ms

               CONVERGENCE CHECKS FOR EQUILIBRIUM ITERATION     1


 AVERAGE FORCE                      0.158       TIME AVG. FORCE       8.452E-02
 LARGEST SCALED RESIDUAL FORCE     -1.743E-20   AT NODE          3   DOF  3
   INSTANCE: ELEM-1                                                                          
  CORRESPONDING RESIDUAL FORCE     -1.743E-20
 LARGEST INCREMENT OF DISP.         1.601E-03   AT NODE          3   DOF  3
   INSTANCE: ELEM-1                                                                          
 LARGEST CORRECTION TO DISP.        1.054E-04   AT NODE          3   DOF  3
   INSTANCE: ELEM-1                                                                          
          THE FORCE     EQUILIBRIUM RESPONSE WAS LINEAR IN THIS INCREMENT

 ITERATION SUMMARY FOR THE INCREMENT:   1 TOTAL ITERATIONS, OF WHICH
   0 ARE SEVERE DISCONTINUITY ITERATIONS AND  1 ARE EQUILIBRIUM ITERATIONS.

 TIME INCREMENT COMPLETED  1.000E-03,  FRACTION OF STEP COMPLETED  1.600E-02
 STEP TIME COMPLETED       1.600E-02,  TOTAL TIME COMPLETED        1.600E-02


  INCREMENT    17 STARTS. ATTEMPT NUMBER  1, TIME INCREMENT  1.000E-03
 
	SYMMETRIC NEW DIRECT SPARSE SOLVER RUNNING ON
 	1 HOST x 1 MPI RANK PER HOST x 1 THREAD PER RANK
        NUMBER OF EQUATIONS:  12
        NUMBER OF RHS:        1
        NUMBER OF FLOPS:      6.500e+02
        SOLVER ELAPSED TIME:  1ms

               CONVERGENCE CHECKS FOR EQUILIBRIUM ITERATION     1


 AVERAGE FORCE                      0.167       TIME AVG. FORCE       8.939E-02
 LARGEST SCALED RESIDUAL FORCE     -2.302E-09   AT NODE          1   DOF  3
   INSTANCE: ELEM-1                                                                          
  CORRESPONDING RESIDUAL FORCE     -2.302E-09
 LARGEST INCREMENT OF DISP.         1.706E-03   AT NODE          4   DOF  3
   INSTANCE: ELEM-1                                                                          
 LARGEST CORRECTION TO DISP.        1.051E-04   AT NODE          4   DOF  3
   INSTANCE: ELEM-1                                                                          
 ESTIMATE OF DISP.    CORRECTION   -1.818E-07
 FORCE     EQUILIB. ACCEPTED BASED ON SMALL RESIDUAL AND ESTIMATED CORRECTION

 ITERATION SUMMARY FOR THE INCREMENT:   1 TOTAL ITERATIONS, OF WHICH
   0 ARE SEVERE DISCONTINUITY ITERATIONS AND  1 ARE EQUILIBRIUM ITERATIONS.

 TIME INCREMENT COMPLETED  1.000E-03,  FRACTION OF STEP COMPLETED  1.700E-02
 STEP TIME COMPLETED       1.700E-02,  TOTAL TIME COMPLETED        1.700E-02


  INCREMENT    18 STARTS. ATTEMPT NUMBER  1, TIME INCREMENT  1.000E-03
 
	SYMMETRIC NEW DIRECT SPARSE SOLVER RUNNING ON
 	1 HOST x 1 MPI RANK PER HOST x 1 THREAD PER RANK
        NUMBER OF EQUATIONS:  12
        NUMBER OF RHS:        1
        NUMBER OF FLOPS:      6.500e+02
        SOLVER ELAPSED TIME:  1ms

               CONVERGENCE CHECKS FOR EQUILIBRIUM ITERATION     1


 AVERAGE FORCE                      0.177       TIME AVG. FORCE       9.423E-02
 LARGEST SCALED RESIDUAL FORCE      2.523E-20   AT NODE          2   DOF  3
   INSTANCE: ELEM-1                                                                          
  CORRESPONDING RESIDUAL FORCE      2.523E-20
 LARGEST INCREMENT OF DISP.         1.809E-03   AT NODE          3   DOF  3
   INSTANCE: ELEM-1                                                                          
 LARGEST CORRECTION TO DISP.        1.032E-04   AT NODE          3   DOF  3
   INSTANCE: ELEM-1                                                                          
          THE FORCE     EQUILIBRIUM RESPONSE WAS LINEAR IN THIS INCREMENT

 ITERATION SUMMARY FOR THE INCREMENT:   1 TOTAL ITERATIONS, OF WHICH
   0 ARE SEVERE DISCONTINUITY ITERATIONS AND  1 ARE EQUILIBRIUM ITERATIONS.

 TIME INCREMENT COMPLETED  1.000E-03,  FRACTION OF STEP COMPLETED  1.800E-02
 STEP TIME COMPLETED       1.800E-02,  TOTAL TIME COMPLETED        1.800E-02


  INCREMENT    19 STARTS. ATTEMPT NUMBER  1, TIME INCREMENT  1.000E-03
 
	SYMMETRIC NEW DIRECT SPARSE SOLVER RUNNING ON
 	1 HOST x 1 MPI RANK PER HOST x 1 THREAD PER RANK
        NUMBER OF EQUATIONS:  12
        NUMBER OF RHS:        1
        NUMBER OF FLOPS:      6.500e+02
        SOLVER ELAPSED TIME:  1ms

               CONVERGENCE CHECKS FOR EQUILIBRIUM ITERATION     1


 AVERAGE FORCE                      0.186       TIME AVG. FORCE       9.905E-02
 LARGEST SCALED RESIDUAL FORCE     -2.543E-09   AT NODE          3   DOF  3
   INSTANCE: ELEM-1                                                                          
  CORRESPONDING RESIDUAL FORCE     -2.543E-09
 LARGEST INCREMENT OF DISP.         1.912E-03   AT NODE          4   DOF  3
   INSTANCE: ELEM-1                                                                          
 LARGEST CORRECTION TO DISP.        1.028E-04   AT NODE          1   DOF  3
   INSTANCE: ELEM-1                                                                          
 ESTIMATE OF DISP.    CORRECTION   -2.002E-07
 FORCE     EQUILIB. ACCEPTED BASED ON SMALL RESIDUAL AND ESTIMATED CORRECTION

 ITERATION SUMMARY FOR THE INCREMENT:   1 TOTAL ITERATIONS, OF WHICH
   0 ARE SEVERE DISCONTINUITY ITERATIONS AND  1 ARE EQUILIBRIUM ITERATIONS.

 TIME INCREMENT COMPLETED  1.000E-03,  FRACTION OF STEP COMPLETED  1.900E-02
 STEP TIME COMPLETED       1.900E-02,  TOTAL TIME COMPLETED        1.900E-02


  INCREMENT    20 STARTS. ATTEMPT NUMBER  1, TIME INCREMENT  1.000E-03
 
	SYMMETRIC NEW DIRECT SPARSE SOLVER RUNNING ON
 	1 HOST x 1 MPI RANK PER HOST x 1 THREAD PER RANK
        NUMBER OF EQUATIONS:  12
        NUMBER OF RHS:        1
        NUMBER OF FLOPS:      6.500e+02
        SOLVER ELAPSED TIME:  1ms

               CONVERGENCE CHECKS FOR EQUILIBRIUM ITERATION     1


 AVERAGE FORCE                      0.195       TIME AVG. FORCE       0.104    
 LARGEST SCALED RESIDUAL FORCE     -3.381E-20   AT NODE          3   DOF  3
   INSTANCE: ELEM-1                                                                          
  CORRESPONDING RESIDUAL FORCE     -3.381E-20
 LARGEST INCREMENT OF DISP.         2.013E-03   AT NODE          3   DOF  3
   INSTANCE: ELEM-1                                                                          
 LARGEST CORRECTION TO DISP.        1.008E-04   AT NODE          2   DOF  3
   INSTANCE: ELEM-1                                                                          
          THE FORCE     EQUILIBRIUM RESPONSE WAS LINEAR IN THIS INCREMENT

 ITERATION SUMMARY FOR THE INCREMENT:   1 TOTAL ITERATIONS, OF WHICH
   0 ARE SEVERE DISCONTINUITY ITERATIONS AND  1 ARE EQUILIBRIUM ITERATIONS.

 TIME INCREMENT COMPLETED  1.000E-03,  FRACTION OF STEP COMPLETED  2.000E-02
 STEP TIME COMPLETED       2.000E-02,  TOTAL TIME COMPLETED        2.000E-02


  INCREMENT    21 STARTS. ATTEMPT NUMBER  1, TIME INCREMENT  1.000E-03
 
	SYMMETRIC NEW DIRECT SPARSE SOLVER RUNNING ON
 	1 HOST x 1 MPI RANK PER HOST x 1 THREAD PER RANK
        NUMBER OF EQUATIONS:  12
        NUMBER OF RHS:        1
        NUMBER OF FLOPS:      6.500e+02
        SOLVER ELAPSED TIME:  1ms

               CONVERGENCE CHECKS FOR EQUILIBRIUM ITERATION     1


 AVERAGE FORCE                      0.204       TIME AVG. FORCE       0.109    
 LARGEST SCALED RESIDUAL FORCE     -2.765E-09   AT NODE          1   DOF  3
   INSTANCE: ELEM-1                                                                          
  CORRESPONDING RESIDUAL FORCE     -2.765E-09
 LARGEST INCREMENT OF DISP.         2.113E-03   AT NODE          4   DOF  3
   INSTANCE: ELEM-1                                                                          
 LARGEST CORRECTION TO DISP.        1.003E-04   AT NODE          4   DOF  3
   INSTANCE: ELEM-1                                                                          
 ESTIMATE OF DISP.    CORRECTION   -2.168E-07
 FORCE     EQUILIB. ACCEPTED BASED ON SMALL RESIDUAL AND ESTIMATED CORRECTION

 ITERATION SUMMARY FOR THE INCREMENT:   1 TOTAL ITERATIONS, OF WHICH
   0 ARE SEVERE DISCONTINUITY ITERATIONS AND  1 ARE EQUILIBRIUM ITERATIONS.

 TIME INCREMENT COMPLETED  1.000E-03,  FRACTION OF STEP COMPLETED  2.100E-02
 STEP TIME COMPLETED       2.100E-02,  TOTAL TIME COMPLETED        2.100E-02


  INCREMENT    22 STARTS. ATTEMPT NUMBER  1, TIME INCREMENT  1.000E-03
 
	SYMMETRIC NEW DIRECT SPARSE SOLVER RUNNING ON
 	1 HOST x 1 MPI RANK PER HOST x 1 THREAD PER RANK
        NUMBER OF EQUATIONS:  12
        NUMBER OF RHS:        1
        NUMBER OF FLOPS:      6.500e+02
        SOLVER ELAPSED TIME:  1ms

               CONVERGENCE CHECKS FOR EQUILIBRIUM ITERATION     1


 AVERAGE FORCE                      0.212       TIME AVG. FORCE       0.113    
 LARGEST SCALED RESIDUAL FORCE      3.522E-20   AT NODE          1   DOF  3
   INSTANCE: ELEM-1                                                                          
  CORRESPONDING RESIDUAL FORCE      3.522E-20
 LARGEST INCREMENT OF DISP.         2.211E-03   AT NODE          3   DOF  3
   INSTANCE: ELEM-1                                                                          
 LARGEST CORRECTION TO DISP.        9.813E-05   AT NODE          3   DOF  3
   INSTANCE: ELEM-1                                                                          
          THE FORCE     EQUILIBRIUM RESPONSE WAS LINEAR IN THIS INCREMENT

 ITERATION SUMMARY FOR THE INCREMENT:   1 TOTAL ITERATIONS, OF WHICH
   0 ARE SEVERE DISCONTINUITY ITERATIONS AND  1 ARE EQUILIBRIUM ITERATIONS.

 TIME INCREMENT COMPLETED  1.000E-03,  FRACTION OF STEP COMPLETED  2.200E-02
 STEP TIME COMPLETED       2.200E-02,  TOTAL TIME COMPLETED        2.200E-02


  INCREMENT    23 STARTS. ATTEMPT NUMBER  1, TIME INCREMENT  1.000E-03
 
	SYMMETRIC NEW DIRECT SPARSE SOLVER RUNNING ON
 	1 HOST x 1 MPI RANK PER HOST x 1 THREAD PER RANK
        NUMBER OF EQUATIONS:  12
        NUMBER OF RHS:        1
        NUMBER OF FLOPS:      6.500e+02
        SOLVER ELAPSED TIME:  1ms

               CONVERGENCE CHECKS FOR EQUILIBRIUM ITERATION     1


 AVERAGE FORCE                      0.221       TIME AVG. FORCE       0.118    
 LARGEST SCALED RESIDUAL FORCE     -2.966E-09   AT NODE          2   DOF  3
   INSTANCE: ELEM-1                                                                          
  CORRESPONDING RESIDUAL FORCE     -2.966E-09
 LARGEST INCREMENT OF DISP.         2.309E-03   AT NODE          1   DOF  3
   INSTANCE: ELEM-1                                                                          
 LARGEST CORRECTION TO DISP.        9.761E-05   AT NODE          1   DOF  3
   INSTANCE: ELEM-1                                                                          
 ESTIMATE OF DISP.    CORRECTION   -2.315E-07
 FORCE     EQUILIB. ACCEPTED BASED ON SMALL RESIDUAL AND ESTIMATED CORRECTION

 ITERATION SUMMARY FOR THE INCREMENT:   1 TOTAL ITERATIONS, OF WHICH
   0 ARE SEVERE DISCONTINUITY ITERATIONS AND  1 ARE EQUILIBRIUM ITERATIONS.

 TIME INCREMENT COMPLETED  1.000E-03,  FRACTION OF STEP COMPLETED  2.300E-02
 STEP TIME COMPLETED       2.300E-02,  TOTAL TIME COMPLETED        2.300E-02


  INCREMENT    24 STARTS. ATTEMPT NUMBER  1, TIME INCREMENT  1.000E-03
 
	SYMMETRIC NEW DIRECT SPARSE SOLVER RUNNING ON
 	1 HOST x 1 MPI RANK PER HOST x 1 THREAD PER RANK
        NUMBER OF EQUATIONS:  12
        NUMBER OF RHS:        1
        NUMBER OF FLOPS:      6.500e+02
        SOLVER ELAPSED TIME:  1ms

               CONVERGENCE CHECKS FOR EQUILIBRIUM ITERATION     1


 AVERAGE FORCE                      0.230       TIME AVG. FORCE       0.123    
 LARGEST SCALED RESIDUAL FORCE      3.638E-20   AT NODE          1   DOF  3
   INSTANCE: ELEM-1                                                                          
  CORRESPONDING RESIDUAL FORCE      3.638E-20
 LARGEST INCREMENT OF DISP.         2.404E-03   AT NODE          3   DOF  3
   INSTANCE: ELEM-1                                                                          
 LARGEST CORRECTION TO DISP.        9.525E-05   AT NODE          3   DOF  3
   INSTANCE: ELEM-1                                                                          
          THE FORCE     EQUILIBRIUM RESPONSE WAS LINEAR IN THIS INCREMENT

 ITERATION SUMMARY FOR THE INCREMENT:   1 TOTAL ITERATIONS, OF WHICH
   0 ARE SEVERE DISCONTINUITY ITERATIONS AND  1 ARE EQUILIBRIUM ITERATIONS.

 TIME INCREMENT COMPLETED  1.000E-03,  FRACTION OF STEP COMPLETED  2.400E-02
 STEP TIME COMPLETED       2.400E-02,  TOTAL TIME COMPLETED        2.400E-02


  INCREMENT    25 STARTS. ATTEMPT NUMBER  1, TIME INCREMENT  1.000E-03
 
	SYMMETRIC NEW DIRECT SPARSE SOLVER RUNNING ON
 	1 HOST x 1 MPI RANK PER HOST x 1 THREAD PER RANK
        NUMBER OF EQUATIONS:  12
        NUMBER OF RHS:        1
        NUMBER OF FLOPS:      6.500e+02
        SOLVER ELAPSED TIME:  1ms

               CONVERGENCE CHECKS FOR EQUILIBRIUM ITERATION     1


 AVERAGE FORCE                      0.238       TIME AVG. FORCE       0.127    
 LARGEST SCALED RESIDUAL FORCE     -3.145E-09   AT NODE          1   DOF  3
   INSTANCE: ELEM-1                                                                          
  CORRESPONDING RESIDUAL FORCE     -3.145E-09
 LARGEST INCREMENT OF DISP.         2.499E-03   AT NODE          1   DOF  3
   INSTANCE: ELEM-1                                                                          
 LARGEST CORRECTION TO DISP.        9.469E-05   AT NODE          1   DOF  3
   INSTANCE: ELEM-1                                                                          
 ESTIMATE OF DISP.    CORRECTION   -2.443E-07
 FORCE     EQUILIB. ACCEPTED BASED ON SMALL RESIDUAL AND ESTIMATED CORRECTION

 ITERATION SUMMARY FOR THE INCREMENT:   1 TOTAL ITERATIONS, OF WHICH
   0 ARE SEVERE DISCONTINUITY ITERATIONS AND  1 ARE EQUILIBRIUM ITERATIONS.

 TIME INCREMENT COMPLETED  1.000E-03,  FRACTION OF STEP COMPLETED  2.500E-02
 STEP TIME COMPLETED       2.500E-02,  TOTAL TIME COMPLETED        2.500E-02


  INCREMENT    26 STARTS. ATTEMPT NUMBER  1, TIME INCREMENT  1.000E-03
 
	SYMMETRIC NEW DIRECT SPARSE SOLVER RUNNING ON
 	1 HOST x 1 MPI RANK PER HOST x 1 THREAD PER RANK
        NUMBER OF EQUATIONS:  12
        NUMBER OF RHS:        1
        NUMBER OF FLOPS:      6.500e+02
        SOLVER ELAPSED TIME:  1ms

               CONVERGENCE CHECKS FOR EQUILIBRIUM ITERATION     1


 AVERAGE FORCE                      0.246       TIME AVG. FORCE       0.132    
 LARGEST SCALED RESIDUAL FORCE     -7.920E-20   AT NODE          1   DOF  3
   INSTANCE: ELEM-1                                                                          
  CORRESPONDING RESIDUAL FORCE     -7.920E-20
 LARGEST INCREMENT OF DISP.         2.591E-03   AT NODE          3   DOF  3
   INSTANCE: ELEM-1                                                                          
 LARGEST CORRECTION TO DISP.        9.219E-05   AT NODE          3   DOF  3
   INSTANCE: ELEM-1                                                                          
          THE FORCE     EQUILIBRIUM RESPONSE WAS LINEAR IN THIS INCREMENT

 ITERATION SUMMARY FOR THE INCREMENT:   1 TOTAL ITERATIONS, OF WHICH
   0 ARE SEVERE DISCONTINUITY ITERATIONS AND  1 ARE EQUILIBRIUM ITERATIONS.

 TIME INCREMENT COMPLETED  1.000E-03,  FRACTION OF STEP COMPLETED  2.600E-02
 STEP TIME COMPLETED       2.600E-02,  TOTAL TIME COMPLETED        2.600E-02


  INCREMENT    27 STARTS. ATTEMPT NUMBER  1, TIME INCREMENT  1.000E-03
 
	SYMMETRIC NEW DIRECT SPARSE SOLVER RUNNING ON
 	1 HOST x 1 MPI RANK PER HOST x 1 THREAD PER RANK
        NUMBER OF EQUATIONS:  12
        NUMBER OF RHS:        1
        NUMBER OF FLOPS:      6.500e+02
        SOLVER ELAPSED TIME:  1ms

               CONVERGENCE CHECKS FOR EQUILIBRIUM ITERATION     1


 AVERAGE FORCE                      0.254       TIME AVG. FORCE       0.136    
 LARGEST SCALED RESIDUAL FORCE     -3.301E-09   AT NODE          2   DOF  3
   INSTANCE: ELEM-1                                                                          
  CORRESPONDING RESIDUAL FORCE     -3.301E-09
 LARGEST INCREMENT OF DISP.         2.683E-03   AT NODE          2   DOF  3
   INSTANCE: ELEM-1                                                                          
 LARGEST CORRECTION TO DISP.        9.158E-05   AT NODE          2   DOF  3
   INSTANCE: ELEM-1                                                                          
 ESTIMATE OF DISP.    CORRECTION   -2.551E-07
 FORCE     EQUILIB. ACCEPTED BASED ON SMALL RESIDUAL AND ESTIMATED CORRECTION

 ITERATION SUMMARY FOR THE INCREMENT:   1 TOTAL ITERATIONS, OF WHICH
   0 ARE SEVERE DISCONTINUITY ITERATIONS AND  1 ARE EQUILIBRIUM ITERATIONS.

 TIME INCREMENT COMPLETED  1.000E-03,  FRACTION OF STEP COMPLETED  2.700E-02
 STEP TIME COMPLETED       2.700E-02,  TOTAL TIME COMPLETED        2.700E-02


  INCREMENT    28 STARTS. ATTEMPT NUMBER  1, TIME INCREMENT  1.000E-03
 
	SYMMETRIC NEW DIRECT SPARSE SOLVER RUNNING ON
 	1 HOST x 1 MPI RANK PER HOST x 1 THREAD PER RANK
        NUMBER OF EQUATIONS:  12
        NUMBER OF RHS:        1
        NUMBER OF FLOPS:      6.500e+02
        SOLVER ELAPSED TIME:  1ms

               CONVERGENCE CHECKS FOR EQUILIBRIUM ITERATION     1


 AVERAGE FORCE                      0.262       TIME AVG. FORCE       0.141    
 LARGEST SCALED RESIDUAL FORCE     -2.852E-21   AT NODE          1   DOF  3
   INSTANCE: ELEM-1                                                                          
  CORRESPONDING RESIDUAL FORCE     -2.852E-21
 LARGEST INCREMENT OF DISP.         2.772E-03   AT NODE          1   DOF  3
   INSTANCE: ELEM-1                                                                          
 LARGEST CORRECTION TO DISP.        8.895E-05   AT NODE          1   DOF  3
   INSTANCE: ELEM-1                                                                          
          THE FORCE     EQUILIBRIUM RESPONSE WAS LINEAR IN THIS INCREMENT

 ITERATION SUMMARY FOR THE INCREMENT:   1 TOTAL ITERATIONS, OF WHICH
   0 ARE SEVERE DISCONTINUITY ITERATIONS AND  1 ARE EQUILIBRIUM ITERATIONS.

 TIME INCREMENT COMPLETED  1.000E-03,  FRACTION OF STEP COMPLETED  2.800E-02
 STEP TIME COMPLETED       2.800E-02,  TOTAL TIME COMPLETED        2.800E-02


  INCREMENT    29 STARTS. ATTEMPT NUMBER  1, TIME INCREMENT  1.000E-03
 
	SYMMETRIC NEW DIRECT SPARSE SOLVER RUNNING ON
 	1 HOST x 1 MPI RANK PER HOST x 1 THREAD PER RANK
        NUMBER OF EQUATIONS:  12
        NUMBER OF RHS:        1
        NUMBER OF FLOPS:      6.500e+02
        SOLVER ELAPSED TIME:  1ms

               CONVERGENCE CHECKS FOR EQUILIBRIUM ITERATION     1


 AVERAGE FORCE                      0.270       TIME AVG. FORCE       0.145    
 LARGEST SCALED RESIDUAL FORCE     -3.432E-09   AT NODE          4   DOF  3
   INSTANCE: ELEM-1                                                                          
  CORRESPONDING RESIDUAL FORCE     -3.432E-09
 LARGEST INCREMENT OF DISP.         2.860E-03   AT NODE          4   DOF  3
   INSTANCE: ELEM-1                                                                          
 LARGEST CORRECTION TO DISP.        8.830E-05   AT NODE          4   DOF  3
   INSTANCE: ELEM-1                                                                          
 ESTIMATE OF DISP.    CORRECTION   -2.637E-07
 FORCE     EQUILIB. ACCEPTED BASED ON SMALL RESIDUAL AND ESTIMATED CORRECTION

 ITERATION SUMMARY FOR THE INCREMENT:   1 TOTAL ITERATIONS, OF WHICH
   0 ARE SEVERE DISCONTINUITY ITERATIONS AND  1 ARE EQUILIBRIUM ITERATIONS.

 TIME INCREMENT COMPLETED  1.000E-03,  FRACTION OF STEP COMPLETED  2.900E-02
 STEP TIME COMPLETED       2.900E-02,  TOTAL TIME COMPLETED        2.900E-02


  INCREMENT    30 STARTS. ATTEMPT NUMBER  1, TIME INCREMENT  1.000E-03
 
	SYMMETRIC NEW DIRECT SPARSE SOLVER RUNNING ON
 	1 HOST x 1 MPI RANK PER HOST x 1 THREAD PER RANK
        NUMBER OF EQUATIONS:  12
        NUMBER OF RHS:        1
        NUMBER OF FLOPS:      6.500e+02
        SOLVER ELAPSED TIME:  1ms

               CONVERGENCE CHECKS FOR EQUILIBRIUM ITERATION     1


 AVERAGE FORCE                      0.278       TIME AVG. FORCE       0.150    
 LARGEST SCALED RESIDUAL FORCE     -8.759E-20   AT NODE          2   DOF  3
   INSTANCE: ELEM-1                                                                          
  CORRESPONDING RESIDUAL FORCE     -8.759E-20
 LARGEST INCREMENT OF DISP.         2.946E-03   AT NODE          2   DOF  3
   INSTANCE: ELEM-1                                                                          
 LARGEST CORRECTION TO DISP.        8.555E-05   AT NODE          3   DOF  3
   INSTANCE: ELEM-1                                                                          
          THE FORCE     EQUILIBRIUM RESPONSE WAS LINEAR IN THIS INCREMENT

 ITERATION SUMMARY FOR THE INCREMENT:   1 TOTAL ITERATIONS, OF WHICH
   0 ARE SEVERE DISCONTINUITY ITERATIONS AND  1 ARE EQUILIBRIUM ITERATIONS.

 TIME INCREMENT COMPLETED  1.000E-03,  FRACTION OF STEP COMPLETED  3.000E-02
 STEP TIME COMPLETED       3.000E-02,  TOTAL TIME COMPLETED        3.000E-02


  INCREMENT    31 STARTS. ATTEMPT NUMBER  1, TIME INCREMENT  1.000E-03
 
	SYMMETRIC NEW DIRECT SPARSE SOLVER RUNNING ON
 	1 HOST x 1 MPI RANK PER HOST x 1 THREAD PER RANK
        NUMBER OF EQUATIONS:  12
        NUMBER OF RHS:        1
        NUMBER OF FLOPS:      6.500e+02
        SOLVER ELAPSED TIME:  1ms

               CONVERGENCE CHECKS FOR EQUILIBRIUM ITERATION     1


 AVERAGE FORCE                      0.285       TIME AVG. FORCE       0.154    
 LARGEST SCALED RESIDUAL FORCE     -3.539E-09   AT NODE          2   DOF  3
   INSTANCE: ELEM-1                                                                          
  CORRESPONDING RESIDUAL FORCE     -3.539E-09
 LARGEST INCREMENT OF DISP.         3.030E-03   AT NODE          4   DOF  3
   INSTANCE: ELEM-1                                                                          
 LARGEST CORRECTION TO DISP.        8.487E-05   AT NODE          4   DOF  3
   INSTANCE: ELEM-1                                                                          
 ESTIMATE OF DISP.    CORRECTION   -2.702E-07
 FORCE     EQUILIB. ACCEPTED BASED ON SMALL RESIDUAL AND ESTIMATED CORRECTION

 ITERATION SUMMARY FOR THE INCREMENT:   1 TOTAL ITERATIONS, OF WHICH
   0 ARE SEVERE DISCONTINUITY ITERATIONS AND  1 ARE EQUILIBRIUM ITERATIONS.

 TIME INCREMENT COMPLETED  1.000E-03,  FRACTION OF STEP COMPLETED  3.100E-02
 STEP TIME COMPLETED       3.100E-02,  TOTAL TIME COMPLETED        3.100E-02


  INCREMENT    32 STARTS. ATTEMPT NUMBER  1, TIME INCREMENT  1.000E-03
 
	SYMMETRIC NEW DIRECT SPARSE SOLVER RUNNING ON
 	1 HOST x 1 MPI RANK PER HOST x 1 THREAD PER RANK
        NUMBER OF EQUATIONS:  12
        NUMBER OF RHS:        1
        NUMBER OF FLOPS:      6.500e+02
        SOLVER ELAPSED TIME:  1ms

               CONVERGENCE CHECKS FOR EQUILIBRIUM ITERATION     1


 AVERAGE FORCE                      0.293       TIME AVG. FORCE       0.158    
 LARGEST SCALED RESIDUAL FORCE     -6.707E-20   AT NODE          2   DOF  3
   INSTANCE: ELEM-1                                                                          
  CORRESPONDING RESIDUAL FORCE     -6.707E-20
 LARGEST INCREMENT OF DISP.         3.112E-03   AT NODE          3   DOF  3
   INSTANCE: ELEM-1                                                                          
 LARGEST CORRECTION TO DISP.        8.202E-05   AT NODE          3   DOF  3
   INSTANCE: ELEM-1                                                                          
          THE FORCE     EQUILIBRIUM RESPONSE WAS LINEAR IN THIS INCREMENT

 ITERATION SUMMARY FOR THE INCREMENT:   1 TOTAL ITERATIONS, OF WHICH
   0 ARE SEVERE DISCONTINUITY ITERATIONS AND  1 ARE EQUILIBRIUM ITERATIONS.

 TIME INCREMENT COMPLETED  1.000E-03,  FRACTION OF STEP COMPLETED  3.200E-02
 STEP TIME COMPLETED       3.200E-02,  TOTAL TIME COMPLETED        3.200E-02


  INCREMENT    33 STARTS. ATTEMPT NUMBER  1, TIME INCREMENT  1.000E-03
 
	SYMMETRIC NEW DIRECT SPARSE SOLVER RUNNING ON
 	1 HOST x 1 MPI RANK PER HOST x 1 THREAD PER RANK
        NUMBER OF EQUATIONS:  12
        NUMBER OF RHS:        1
        NUMBER OF FLOPS:      6.500e+02
        SOLVER ELAPSED TIME:  1ms

               CONVERGENCE CHECKS FOR EQUILIBRIUM ITERATION     1


 AVERAGE FORCE                      0.300       TIME AVG. FORCE       0.163    
 LARGEST SCALED RESIDUAL FORCE     -3.620E-09   AT NODE          1   DOF  3
   INSTANCE: ELEM-1                                                                          
  CORRESPONDING RESIDUAL FORCE     -3.620E-09
 LARGEST INCREMENT OF DISP.         3.194E-03   AT NODE          1   DOF  3
   INSTANCE: ELEM-1                                                                          
 LARGEST CORRECTION TO DISP.        8.130E-05   AT NODE          4   DOF  3
   INSTANCE: ELEM-1                                                                          
 ESTIMATE OF DISP.    CORRECTION   -2.746E-07
 FORCE     EQUILIB. ACCEPTED BASED ON SMALL RESIDUAL AND ESTIMATED CORRECTION

 ITERATION SUMMARY FOR THE INCREMENT:   1 TOTAL ITERATIONS, OF WHICH
   0 ARE SEVERE DISCONTINUITY ITERATIONS AND  1 ARE EQUILIBRIUM ITERATIONS.

 TIME INCREMENT COMPLETED  1.000E-03,  FRACTION OF STEP COMPLETED  3.300E-02
 STEP TIME COMPLETED       3.300E-02,  TOTAL TIME COMPLETED        3.300E-02


  INCREMENT    34 STARTS. ATTEMPT NUMBER  1, TIME INCREMENT  1.000E-03
 
	SYMMETRIC NEW DIRECT SPARSE SOLVER RUNNING ON
 	1 HOST x 1 MPI RANK PER HOST x 1 THREAD PER RANK
        NUMBER OF EQUATIONS:  12
        NUMBER OF RHS:        1
        NUMBER OF FLOPS:      6.500e+02
        SOLVER ELAPSED TIME:  1ms

               CONVERGENCE CHECKS FOR EQUILIBRIUM ITERATION     1


 AVERAGE FORCE                      0.307       TIME AVG. FORCE       0.167    
 LARGEST SCALED RESIDUAL FORCE     -6.690E-20   AT NODE          4   DOF  3
   INSTANCE: ELEM-1                                                                          
  CORRESPONDING RESIDUAL FORCE     -6.690E-20
 LARGEST INCREMENT OF DISP.         3.272E-03   AT NODE          4   DOF  3
   INSTANCE: ELEM-1                                                                          
 LARGEST CORRECTION TO DISP.        7.837E-05   AT NODE          4   DOF  3
   INSTANCE: ELEM-1                                                                          
          THE FORCE     EQUILIBRIUM RESPONSE WAS LINEAR IN THIS INCREMENT

 ITERATION SUMMARY FOR THE INCREMENT:   1 TOTAL ITERATIONS, OF WHICH
   0 ARE SEVERE DISCONTINUITY ITERATIONS AND  1 ARE EQUILIBRIUM ITERATIONS.

 TIME INCREMENT COMPLETED  1.000E-03,  FRACTION OF STEP COMPLETED  3.400E-02
 STEP TIME COMPLETED       3.400E-02,  TOTAL TIME COMPLETED        3.400E-02


  INCREMENT    35 STARTS. ATTEMPT NUMBER  1, TIME INCREMENT  1.000E-03
 
	SYMMETRIC NEW DIRECT SPARSE SOLVER RUNNING ON
 	1 HOST x 1 MPI RANK PER HOST x 1 THREAD PER RANK
        NUMBER OF EQUATIONS:  12
        NUMBER OF RHS:        1
        NUMBER OF FLOPS:      6.500e+02
        SOLVER ELAPSED TIME:  0ms

               CONVERGENCE CHECKS FOR EQUILIBRIUM ITERATION     1


 AVERAGE FORCE                      0.314       TIME AVG. FORCE       0.171    
 LARGEST SCALED RESIDUAL FORCE     -3.675E-09   AT NODE          4   DOF  3
   INSTANCE: ELEM-1                                                                          
  CORRESPONDING RESIDUAL FORCE     -3.675E-09
 LARGEST INCREMENT OF DISP.         3.350E-03   AT NODE          2   DOF  3
   INSTANCE: ELEM-1                                                                          
 LARGEST CORRECTION TO DISP.        7.761E-05   AT NODE          2   DOF  3
   INSTANCE: ELEM-1                                                                          
 ESTIMATE OF DISP.    CORRECTION   -2.769E-07
 FORCE     EQUILIB. ACCEPTED BASED ON SMALL RESIDUAL AND ESTIMATED CORRECTION

 ITERATION SUMMARY FOR THE INCREMENT:   1 TOTAL ITERATIONS, OF WHICH
   0 ARE SEVERE DISCONTINUITY ITERATIONS AND  1 ARE EQUILIBRIUM ITERATIONS.

 TIME INCREMENT COMPLETED  1.000E-03,  FRACTION OF STEP COMPLETED  3.500E-02
 STEP TIME COMPLETED       3.500E-02,  TOTAL TIME COMPLETED        3.500E-02


  INCREMENT    36 STARTS. ATTEMPT NUMBER  1, TIME INCREMENT  1.000E-03
 
	SYMMETRIC NEW DIRECT SPARSE SOLVER RUNNING ON
 	1 HOST x 1 MPI RANK PER HOST x 1 THREAD PER RANK
        NUMBER OF EQUATIONS:  12
        NUMBER OF RHS:        1
        NUMBER OF FLOPS:      6.500e+02
        SOLVER ELAPSED TIME:  1ms

               CONVERGENCE CHECKS FOR EQUILIBRIUM ITERATION     1


 AVERAGE FORCE                      0.320       TIME AVG. FORCE       0.175    
 LARGEST SCALED RESIDUAL FORCE      4.556E-21   AT NODE          3   DOF  3
   INSTANCE: ELEM-1                                                                          
  CORRESPONDING RESIDUAL FORCE      4.556E-21
 LARGEST INCREMENT OF DISP.         3.424E-03   AT NODE          1   DOF  3
   INSTANCE: ELEM-1                                                                          
 LARGEST CORRECTION TO DISP.        7.463E-05   AT NODE          1   DOF  3
   INSTANCE: ELEM-1                                                                          
          THE FORCE     EQUILIBRIUM RESPONSE WAS LINEAR IN THIS INCREMENT

 ITERATION SUMMARY FOR THE INCREMENT:   1 TOTAL ITERATIONS, OF WHICH
   0 ARE SEVERE DISCONTINUITY ITERATIONS AND  1 ARE EQUILIBRIUM ITERATIONS.

 TIME INCREMENT COMPLETED  1.000E-03,  FRACTION OF STEP COMPLETED  3.600E-02
 STEP TIME COMPLETED       3.600E-02,  TOTAL TIME COMPLETED        3.600E-02


  INCREMENT    37 STARTS. ATTEMPT NUMBER  1, TIME INCREMENT  1.000E-03
 
	SYMMETRIC NEW DIRECT SPARSE SOLVER RUNNING ON
 	1 HOST x 1 MPI RANK PER HOST x 1 THREAD PER RANK
        NUMBER OF EQUATIONS:  12
        NUMBER OF RHS:        1
        NUMBER OF FLOPS:      6.500e+02
        SOLVER ELAPSED TIME:  0ms

               CONVERGENCE CHECKS FOR EQUILIBRIUM ITERATION     1


 AVERAGE FORCE                      0.327       TIME AVG. FORCE       0.179    
 LARGEST SCALED RESIDUAL FORCE     -3.705E-09   AT NODE          2   DOF  3
   INSTANCE: ELEM-1                                                                          
  CORRESPONDING RESIDUAL FORCE     -3.705E-09
 LARGEST INCREMENT OF DISP.         3.498E-03   AT NODE          2   DOF  3
   INSTANCE: ELEM-1                                                                          
 LARGEST CORRECTION TO DISP.        7.383E-05   AT NODE          2   DOF  3
   INSTANCE: ELEM-1                                                                          
 ESTIMATE OF DISP.    CORRECTION   -2.772E-07
 FORCE     EQUILIB. ACCEPTED BASED ON SMALL RESIDUAL AND ESTIMATED CORRECTION

 ITERATION SUMMARY FOR THE INCREMENT:   1 TOTAL ITERATIONS, OF WHICH
   0 ARE SEVERE DISCONTINUITY ITERATIONS AND  1 ARE EQUILIBRIUM ITERATIONS.

 TIME INCREMENT COMPLETED  1.000E-03,  FRACTION OF STEP COMPLETED  3.700E-02
 STEP TIME COMPLETED       3.700E-02,  TOTAL TIME COMPLETED        3.700E-02


  INCREMENT    38 STARTS. ATTEMPT NUMBER  1, TIME INCREMENT  1.000E-03
 
	SYMMETRIC NEW DIRECT SPARSE SOLVER RUNNING ON
 	1 HOST x 1 MPI RANK PER HOST x 1 THREAD PER RANK
        NUMBER OF EQUATIONS:  12
        NUMBER OF RHS:        1
        NUMBER OF FLOPS:      6.500e+02
        SOLVER ELAPSED TIME:  1ms

               CONVERGENCE CHECKS FOR EQUILIBRIUM ITERATION     1


 AVERAGE FORCE                      0.333       TIME AVG. FORCE       0.183    
 LARGEST SCALED RESIDUAL FORCE      1.401E-19   AT NODE          4   DOF  3
   INSTANCE: ELEM-1                                                                          
  CORRESPONDING RESIDUAL FORCE      1.401E-19
 LARGEST INCREMENT OF DISP.         3.569E-03   AT NODE          3   DOF  3
   INSTANCE: ELEM-1                                                                          
 LARGEST CORRECTION TO DISP.        7.080E-05   AT NODE          1   DOF  3
   INSTANCE: ELEM-1                                                                          
          THE FORCE     EQUILIBRIUM RESPONSE WAS LINEAR IN THIS INCREMENT

 ITERATION SUMMARY FOR THE INCREMENT:   1 TOTAL ITERATIONS, OF WHICH
   0 ARE SEVERE DISCONTINUITY ITERATIONS AND  1 ARE EQUILIBRIUM ITERATIONS.

 TIME INCREMENT COMPLETED  1.000E-03,  FRACTION OF STEP COMPLETED  3.800E-02
 STEP TIME COMPLETED       3.800E-02,  TOTAL TIME COMPLETED        3.800E-02


  INCREMENT    39 STARTS. ATTEMPT NUMBER  1, TIME INCREMENT  1.000E-03
 
	SYMMETRIC NEW DIRECT SPARSE SOLVER RUNNING ON
 	1 HOST x 1 MPI RANK PER HOST x 1 THREAD PER RANK
        NUMBER OF EQUATIONS:  12
        NUMBER OF RHS:        1
        NUMBER OF FLOPS:      6.500e+02
        SOLVER ELAPSED TIME:  1ms

               CONVERGENCE CHECKS FOR EQUILIBRIUM ITERATION     1


 AVERAGE FORCE                      0.339       TIME AVG. FORCE       0.187    
 LARGEST SCALED RESIDUAL FORCE     -3.709E-09   AT NODE          2   DOF  3
   INSTANCE: ELEM-1                                                                          
  CORRESPONDING RESIDUAL FORCE     -3.709E-09
 LARGEST INCREMENT OF DISP.         3.639E-03   AT NODE          4   DOF  3
   INSTANCE: ELEM-1                                                                          
 LARGEST CORRECTION TO DISP.        6.997E-05   AT NODE          4   DOF  3
   INSTANCE: ELEM-1                                                                          
 ESTIMATE OF DISP.    CORRECTION   -2.754E-07
 FORCE     EQUILIB. ACCEPTED BASED ON SMALL RESIDUAL AND ESTIMATED CORRECTION

 ITERATION SUMMARY FOR THE INCREMENT:   1 TOTAL ITERATIONS, OF WHICH
   0 ARE SEVERE DISCONTINUITY ITERATIONS AND  1 ARE EQUILIBRIUM ITERATIONS.

 TIME INCREMENT COMPLETED  1.000E-03,  FRACTION OF STEP COMPLETED  3.900E-02
 STEP TIME COMPLETED       3.900E-02,  TOTAL TIME COMPLETED        3.900E-02


  INCREMENT    40 STARTS. ATTEMPT NUMBER  1, TIME INCREMENT  1.000E-03
 
	SYMMETRIC NEW DIRECT SPARSE SOLVER RUNNING ON
 	1 HOST x 1 MPI RANK PER HOST x 1 THREAD PER RANK
        NUMBER OF EQUATIONS:  12
        NUMBER OF RHS:        1
        NUMBER OF FLOPS:      6.500e+02
        SOLVER ELAPSED TIME:  1ms

               CONVERGENCE CHECKS FOR EQUILIBRIUM ITERATION     1


 AVERAGE FORCE                      0.345       TIME AVG. FORCE       0.191    
 LARGEST SCALED RESIDUAL FORCE      1.636E-19   AT NODE          3   DOF  3
   INSTANCE: ELEM-1                                                                          
  CORRESPONDING RESIDUAL FORCE      1.636E-19
 LARGEST INCREMENT OF DISP.         3.706E-03   AT NODE          4   DOF  3
   INSTANCE: ELEM-1                                                                          
 LARGEST CORRECTION TO DISP.        6.692E-05   AT NODE          1   DOF  3
   INSTANCE: ELEM-1                                                                          
          THE FORCE     EQUILIBRIUM RESPONSE WAS LINEAR IN THIS INCREMENT

 ITERATION SUMMARY FOR THE INCREMENT:   1 TOTAL ITERATIONS, OF WHICH
   0 ARE SEVERE DISCONTINUITY ITERATIONS AND  1 ARE EQUILIBRIUM ITERATIONS.

 TIME INCREMENT COMPLETED  1.000E-03,  FRACTION OF STEP COMPLETED  4.000E-02
 STEP TIME COMPLETED       4.000E-02,  TOTAL TIME COMPLETED        4.000E-02


  INCREMENT    41 STARTS. ATTEMPT NUMBER  1, TIME INCREMENT  1.000E-03
 
	SYMMETRIC NEW DIRECT SPARSE SOLVER RUNNING ON
 	1 HOST x 1 MPI RANK PER HOST x 1 THREAD PER RANK
        NUMBER OF EQUATIONS:  12
        NUMBER OF RHS:        1
        NUMBER OF FLOPS:      6.500e+02
        SOLVER ELAPSED TIME:  0ms

               CONVERGENCE CHECKS FOR EQUILIBRIUM ITERATION     1


 AVERAGE FORCE                      0.351       TIME AVG. FORCE       0.195    
 LARGEST SCALED RESIDUAL FORCE     -3.688E-09   AT NODE          1   DOF  3
   INSTANCE: ELEM-1                                                                          
  CORRESPONDING RESIDUAL FORCE     -3.688E-09
 LARGEST INCREMENT OF DISP.         3.772E-03   AT NODE          1   DOF  3
   INSTANCE: ELEM-1                                                                          
 LARGEST CORRECTION TO DISP.        6.605E-05   AT NODE          1   DOF  3
   INSTANCE: ELEM-1                                                                          
 ESTIMATE OF DISP.    CORRECTION   -2.717E-07
 FORCE     EQUILIB. ACCEPTED BASED ON SMALL RESIDUAL AND ESTIMATED CORRECTION

 ITERATION SUMMARY FOR THE INCREMENT:   1 TOTAL ITERATIONS, OF WHICH
   0 ARE SEVERE DISCONTINUITY ITERATIONS AND  1 ARE EQUILIBRIUM ITERATIONS.

 TIME INCREMENT COMPLETED  1.000E-03,  FRACTION OF STEP COMPLETED  4.100E-02
 STEP TIME COMPLETED       4.100E-02,  TOTAL TIME COMPLETED        4.100E-02


  INCREMENT    42 STARTS. ATTEMPT NUMBER  1, TIME INCREMENT  1.000E-03
 
	SYMMETRIC NEW DIRECT SPARSE SOLVER RUNNING ON
 	1 HOST x 1 MPI RANK PER HOST x 1 THREAD PER RANK
        NUMBER OF EQUATIONS:  12
        NUMBER OF RHS:        1
        NUMBER OF FLOPS:      6.500e+02
        SOLVER ELAPSED TIME:  1ms

               CONVERGENCE CHECKS FOR EQUILIBRIUM ITERATION     1


 AVERAGE FORCE                      0.357       TIME AVG. FORCE       0.199    
 LARGEST SCALED RESIDUAL FORCE     -1.362E-19   AT NODE          4   DOF  3
   INSTANCE: ELEM-1                                                                          
  CORRESPONDING RESIDUAL FORCE     -1.362E-19
 LARGEST INCREMENT OF DISP.         3.835E-03   AT NODE          2   DOF  3
   INSTANCE: ELEM-1                                                                          
 LARGEST CORRECTION TO DISP.        6.300E-05   AT NODE          2   DOF  3
   INSTANCE: ELEM-1                                                                          
          THE FORCE     EQUILIBRIUM RESPONSE WAS LINEAR IN THIS INCREMENT

 ITERATION SUMMARY FOR THE INCREMENT:   1 TOTAL ITERATIONS, OF WHICH
   0 ARE SEVERE DISCONTINUITY ITERATIONS AND  1 ARE EQUILIBRIUM ITERATIONS.

 TIME INCREMENT COMPLETED  1.000E-03,  FRACTION OF STEP COMPLETED  4.200E-02
 STEP TIME COMPLETED       4.200E-02,  TOTAL TIME COMPLETED        4.200E-02


  INCREMENT    43 STARTS. ATTEMPT NUMBER  1, TIME INCREMENT  1.000E-03
 
	SYMMETRIC NEW DIRECT SPARSE SOLVER RUNNING ON
 	1 HOST x 1 MPI RANK PER HOST x 1 THREAD PER RANK
        NUMBER OF EQUATIONS:  12
        NUMBER OF RHS:        1
        NUMBER OF FLOPS:      6.500e+02
        SOLVER ELAPSED TIME:  1ms

               CONVERGENCE CHECKS FOR EQUILIBRIUM ITERATION     1


 AVERAGE FORCE                      0.362       TIME AVG. FORCE       0.203    
 LARGEST SCALED RESIDUAL FORCE     -3.643E-09   AT NODE          3   DOF  3
   INSTANCE: ELEM-1                                                                          
  CORRESPONDING RESIDUAL FORCE     -3.643E-09
 LARGEST INCREMENT OF DISP.         3.897E-03   AT NODE          1   DOF  3
   INSTANCE: ELEM-1                                                                          
 LARGEST CORRECTION TO DISP.        6.210E-05   AT NODE          1   DOF  3
   INSTANCE: ELEM-1                                                                          
 ESTIMATE OF DISP.    CORRECTION   -2.661E-07
 FORCE     EQUILIB. ACCEPTED BASED ON SMALL RESIDUAL AND ESTIMATED CORRECTION

 ITERATION SUMMARY FOR THE INCREMENT:   1 TOTAL ITERATIONS, OF WHICH
   0 ARE SEVERE DISCONTINUITY ITERATIONS AND  1 ARE EQUILIBRIUM ITERATIONS.

 TIME INCREMENT COMPLETED  1.000E-03,  FRACTION OF STEP COMPLETED  4.300E-02
 STEP TIME COMPLETED       4.300E-02,  TOTAL TIME COMPLETED        4.300E-02


  INCREMENT    44 STARTS. ATTEMPT NUMBER  1, TIME INCREMENT  1.000E-03
 
	SYMMETRIC NEW DIRECT SPARSE SOLVER RUNNING ON
 	1 HOST x 1 MPI RANK PER HOST x 1 THREAD PER RANK
        NUMBER OF EQUATIONS:  12
        NUMBER OF RHS:        1
        NUMBER OF FLOPS:      6.500e+02
        SOLVER ELAPSED TIME:  1ms

               CONVERGENCE CHECKS FOR EQUILIBRIUM ITERATION     1


 AVERAGE FORCE                      0.367       TIME AVG. FORCE       0.207    
 LARGEST SCALED RESIDUAL FORCE      1.404E-19   AT NODE          2   DOF  3
   INSTANCE: ELEM-1                                                                          
  CORRESPONDING RESIDUAL FORCE      1.404E-19
 LARGEST INCREMENT OF DISP.         3.956E-03   AT NODE          1   DOF  3
   INSTANCE: ELEM-1                                                                          
 LARGEST CORRECTION TO DISP.        5.905E-05   AT NODE          2   DOF  3
   INSTANCE: ELEM-1                                                                          
          THE FORCE     EQUILIBRIUM RESPONSE WAS LINEAR IN THIS INCREMENT

 ITERATION SUMMARY FOR THE INCREMENT:   1 TOTAL ITERATIONS, OF WHICH
   0 ARE SEVERE DISCONTINUITY ITERATIONS AND  1 ARE EQUILIBRIUM ITERATIONS.

 TIME INCREMENT COMPLETED  1.000E-03,  FRACTION OF STEP COMPLETED  4.400E-02
 STEP TIME COMPLETED       4.400E-02,  TOTAL TIME COMPLETED        4.400E-02


  INCREMENT    45 STARTS. ATTEMPT NUMBER  1, TIME INCREMENT  1.000E-03
 
	SYMMETRIC NEW DIRECT SPARSE SOLVER RUNNING ON
 	1 HOST x 1 MPI RANK PER HOST x 1 THREAD PER RANK
        NUMBER OF EQUATIONS:  12
        NUMBER OF RHS:        1
        NUMBER OF FLOPS:      6.500e+02
        SOLVER ELAPSED TIME:  0ms

               CONVERGENCE CHECKS FOR EQUILIBRIUM ITERATION     1


 AVERAGE FORCE                      0.372       TIME AVG. FORCE       0.210    
 LARGEST SCALED RESIDUAL FORCE     -3.573E-09   AT NODE          1   DOF  3
   INSTANCE: ELEM-1                                                                          
  CORRESPONDING RESIDUAL FORCE     -3.573E-09
 LARGEST INCREMENT OF DISP.         4.014E-03   AT NODE          2   DOF  3
   INSTANCE: ELEM-1                                                                          
 LARGEST CORRECTION TO DISP.        5.812E-05   AT NODE          2   DOF  3
   INSTANCE: ELEM-1                                                                          
 ESTIMATE OF DISP.    CORRECTION   -2.588E-07
 FORCE     EQUILIB. ACCEPTED BASED ON SMALL RESIDUAL AND ESTIMATED CORRECTION

 ITERATION SUMMARY FOR THE INCREMENT:   1 TOTAL ITERATIONS, OF WHICH
   0 ARE SEVERE DISCONTINUITY ITERATIONS AND  1 ARE EQUILIBRIUM ITERATIONS.

 TIME INCREMENT COMPLETED  1.000E-03,  FRACTION OF STEP COMPLETED  4.500E-02
 STEP TIME COMPLETED       4.500E-02,  TOTAL TIME COMPLETED        4.500E-02


  INCREMENT    46 STARTS. ATTEMPT NUMBER  1, TIME INCREMENT  1.000E-03
 
	SYMMETRIC NEW DIRECT SPARSE SOLVER RUNNING ON
 	1 HOST x 1 MPI RANK PER HOST x 1 THREAD PER RANK
        NUMBER OF EQUATIONS:  12
        NUMBER OF RHS:        1
        NUMBER OF FLOPS:      6.500e+02
        SOLVER ELAPSED TIME:  1ms

               CONVERGENCE CHECKS FOR EQUILIBRIUM ITERATION     1


 AVERAGE FORCE                      0.377       TIME AVG. FORCE       0.214    
 LARGEST SCALED RESIDUAL FORCE      1.745E-19   AT NODE          4   DOF  3
   INSTANCE: ELEM-1                                                                          
  CORRESPONDING RESIDUAL FORCE      1.745E-19
 LARGEST INCREMENT OF DISP.         4.069E-03   AT NODE          1   DOF  3
   INSTANCE: ELEM-1                                                                          
 LARGEST CORRECTION TO DISP.        5.510E-05   AT NODE          4   DOF  3
   INSTANCE: ELEM-1                                                                          
          THE FORCE     EQUILIBRIUM RESPONSE WAS LINEAR IN THIS INCREMENT

 ITERATION SUMMARY FOR THE INCREMENT:   1 TOTAL ITERATIONS, OF WHICH
   0 ARE SEVERE DISCONTINUITY ITERATIONS AND  1 ARE EQUILIBRIUM ITERATIONS.

 TIME INCREMENT COMPLETED  1.000E-03,  FRACTION OF STEP COMPLETED  4.600E-02
 STEP TIME COMPLETED       4.600E-02,  TOTAL TIME COMPLETED        4.600E-02


  INCREMENT    47 STARTS. ATTEMPT NUMBER  1, TIME INCREMENT  1.000E-03
 
	SYMMETRIC NEW DIRECT SPARSE SOLVER RUNNING ON
 	1 HOST x 1 MPI RANK PER HOST x 1 THREAD PER RANK
        NUMBER OF EQUATIONS:  12
        NUMBER OF RHS:        1
        NUMBER OF FLOPS:      6.500e+02
        SOLVER ELAPSED TIME:  1ms

               CONVERGENCE CHECKS FOR EQUILIBRIUM ITERATION     1


 AVERAGE FORCE                      0.382       TIME AVG. FORCE       0.218    
 LARGEST SCALED RESIDUAL FORCE     -3.482E-09   AT NODE          3   DOF  3
   INSTANCE: ELEM-1                                                                          
  CORRESPONDING RESIDUAL FORCE     -3.482E-09
 LARGEST INCREMENT OF DISP.         4.123E-03   AT NODE          3   DOF  3
   INSTANCE: ELEM-1                                                                          
 LARGEST CORRECTION TO DISP.        5.414E-05   AT NODE          3   DOF  3
   INSTANCE: ELEM-1                                                                          
 ESTIMATE OF DISP.    CORRECTION   -2.499E-07
 FORCE     EQUILIB. ACCEPTED BASED ON SMALL RESIDUAL AND ESTIMATED CORRECTION

 ITERATION SUMMARY FOR THE INCREMENT:   1 TOTAL ITERATIONS, OF WHICH
   0 ARE SEVERE DISCONTINUITY ITERATIONS AND  1 ARE EQUILIBRIUM ITERATIONS.

 TIME INCREMENT COMPLETED  1.000E-03,  FRACTION OF STEP COMPLETED  4.700E-02
 STEP TIME COMPLETED       4.700E-02,  TOTAL TIME COMPLETED        4.700E-02


  INCREMENT    48 STARTS. ATTEMPT NUMBER  1, TIME INCREMENT  1.000E-03
 
	SYMMETRIC NEW DIRECT SPARSE SOLVER RUNNING ON
 	1 HOST x 1 MPI RANK PER HOST x 1 THREAD PER RANK
        NUMBER OF EQUATIONS:  12
        NUMBER OF RHS:        1
        NUMBER OF FLOPS:      6.500e+02
        SOLVER ELAPSED TIME:  1ms

               CONVERGENCE CHECKS FOR EQUILIBRIUM ITERATION     1


 AVERAGE FORCE                      0.387       TIME AVG. FORCE       0.221    
 LARGEST SCALED RESIDUAL FORCE     -1.226E-20   AT NODE          2   DOF  3
   INSTANCE: ELEM-1                                                                          
  CORRESPONDING RESIDUAL FORCE     -1.226E-20
 LARGEST INCREMENT OF DISP.         4.175E-03   AT NODE          2   DOF  3
   INSTANCE: ELEM-1                                                                          
 LARGEST CORRECTION TO DISP.        5.115E-05   AT NODE          2   DOF  3
   INSTANCE: ELEM-1                                                                          
          THE FORCE     EQUILIBRIUM RESPONSE WAS LINEAR IN THIS INCREMENT

 ITERATION SUMMARY FOR THE INCREMENT:   1 TOTAL ITERATIONS, OF WHICH
   0 ARE SEVERE DISCONTINUITY ITERATIONS AND  1 ARE EQUILIBRIUM ITERATIONS.

 TIME INCREMENT COMPLETED  1.000E-03,  FRACTION OF STEP COMPLETED  4.800E-02
 STEP TIME COMPLETED       4.800E-02,  TOTAL TIME COMPLETED        4.800E-02


  INCREMENT    49 STARTS. ATTEMPT NUMBER  1, TIME INCREMENT  1.000E-03
 
	SYMMETRIC NEW DIRECT SPARSE SOLVER RUNNING ON
 	1 HOST x 1 MPI RANK PER HOST x 1 THREAD PER RANK
        NUMBER OF EQUATIONS:  12
        NUMBER OF RHS:        1
        NUMBER OF FLOPS:      6.500e+02
        SOLVER ELAPSED TIME:  0ms

               CONVERGENCE CHECKS FOR EQUILIBRIUM ITERATION     1


 AVERAGE FORCE                      0.391       TIME AVG. FORCE       0.224    
 LARGEST SCALED RESIDUAL FORCE     -3.368E-09   AT NODE          4   DOF  3
   INSTANCE: ELEM-1                                                                          
  CORRESPONDING RESIDUAL FORCE     -3.368E-09
 LARGEST INCREMENT OF DISP.         4.225E-03   AT NODE          4   DOF  3
   INSTANCE: ELEM-1                                                                          
 LARGEST CORRECTION TO DISP.        5.016E-05   AT NODE          4   DOF  3
   INSTANCE: ELEM-1                                                                          
 ESTIMATE OF DISP.    CORRECTION   -2.395E-07
 FORCE     EQUILIB. ACCEPTED BASED ON SMALL RESIDUAL AND ESTIMATED CORRECTION

 ITERATION SUMMARY FOR THE INCREMENT:   1 TOTAL ITERATIONS, OF WHICH
   0 ARE SEVERE DISCONTINUITY ITERATIONS AND  1 ARE EQUILIBRIUM ITERATIONS.

 TIME INCREMENT COMPLETED  1.000E-03,  FRACTION OF STEP COMPLETED  4.900E-02
 STEP TIME COMPLETED       4.900E-02,  TOTAL TIME COMPLETED        4.900E-02


  INCREMENT    50 STARTS. ATTEMPT NUMBER  1, TIME INCREMENT  1.000E-03
 
	SYMMETRIC NEW DIRECT SPARSE SOLVER RUNNING ON
 	1 HOST x 1 MPI RANK PER HOST x 1 THREAD PER RANK
        NUMBER OF EQUATIONS:  12
        NUMBER OF RHS:        1
        NUMBER OF FLOPS:      6.500e+02
        SOLVER ELAPSED TIME:  1ms

               CONVERGENCE CHECKS FOR EQUILIBRIUM ITERATION     1


 AVERAGE FORCE                      0.395       TIME AVG. FORCE       0.228    
 LARGEST SCALED RESIDUAL FORCE      3.124E-19   AT NODE          1   DOF  3
   INSTANCE: ELEM-1                                                                          
  CORRESPONDING RESIDUAL FORCE      3.124E-19
 LARGEST INCREMENT OF DISP.         4.272E-03   AT NODE          2   DOF  3
   INSTANCE: ELEM-1                                                                          
 LARGEST CORRECTION TO DISP.        4.723E-05   AT NODE          2   DOF  3
   INSTANCE: ELEM-1                                                                          
          THE FORCE     EQUILIBRIUM RESPONSE WAS LINEAR IN THIS INCREMENT

 ITERATION SUMMARY FOR THE INCREMENT:   1 TOTAL ITERATIONS, OF WHICH
   0 ARE SEVERE DISCONTINUITY ITERATIONS AND  1 ARE EQUILIBRIUM ITERATIONS.

 TIME INCREMENT COMPLETED  1.000E-03,  FRACTION OF STEP COMPLETED  5.000E-02
 STEP TIME COMPLETED       5.000E-02,  TOTAL TIME COMPLETED        5.000E-02


  INCREMENT    51 STARTS. ATTEMPT NUMBER  1, TIME INCREMENT  1.000E-03
 
	SYMMETRIC NEW DIRECT SPARSE SOLVER RUNNING ON
 	1 HOST x 1 MPI RANK PER HOST x 1 THREAD PER RANK
        NUMBER OF EQUATIONS:  12
        NUMBER OF RHS:        1
        NUMBER OF FLOPS:      6.500e+02
        SOLVER ELAPSED TIME:  0ms

               CONVERGENCE CHECKS FOR EQUILIBRIUM ITERATION     1


 AVERAGE FORCE                      0.399       TIME AVG. FORCE       0.231    
 LARGEST SCALED RESIDUAL FORCE     -3.234E-09   AT NODE          1   DOF  3
   INSTANCE: ELEM-1                                                                          
  CORRESPONDING RESIDUAL FORCE     -3.234E-09
 LARGEST INCREMENT OF DISP.         4.318E-03   AT NODE          1   DOF  3
   INSTANCE: ELEM-1                                                                          
 LARGEST CORRECTION TO DISP.        4.622E-05   AT NODE          1   DOF  3
   INSTANCE: ELEM-1                                                                          
 ESTIMATE OF DISP.    CORRECTION   -2.278E-07
 FORCE     EQUILIB. ACCEPTED BASED ON SMALL RESIDUAL AND ESTIMATED CORRECTION

 ITERATION SUMMARY FOR THE INCREMENT:   1 TOTAL ITERATIONS, OF WHICH
   0 ARE SEVERE DISCONTINUITY ITERATIONS AND  1 ARE EQUILIBRIUM ITERATIONS.

 TIME INCREMENT COMPLETED  1.000E-03,  FRACTION OF STEP COMPLETED  5.100E-02
 STEP TIME COMPLETED       5.100E-02,  TOTAL TIME COMPLETED        5.100E-02


  INCREMENT    52 STARTS. ATTEMPT NUMBER  1, TIME INCREMENT  1.000E-03
 
	SYMMETRIC NEW DIRECT SPARSE SOLVER RUNNING ON
 	1 HOST x 1 MPI RANK PER HOST x 1 THREAD PER RANK
        NUMBER OF EQUATIONS:  12
        NUMBER OF RHS:        1
        NUMBER OF FLOPS:      6.500e+02
        SOLVER ELAPSED TIME:  1ms

               CONVERGENCE CHECKS FOR EQUILIBRIUM ITERATION     1


 AVERAGE FORCE                      0.403       TIME AVG. FORCE       0.235    
 LARGEST SCALED RESIDUAL FORCE     -1.500E-19   AT NODE          2   DOF  3
   INSTANCE: ELEM-1                                                                          
  CORRESPONDING RESIDUAL FORCE     -1.500E-19
 LARGEST INCREMENT OF DISP.         4.362E-03   AT NODE          2   DOF  3
   INSTANCE: ELEM-1                                                                          
 LARGEST CORRECTION TO DISP.        4.335E-05   AT NODE          2   DOF  3
   INSTANCE: ELEM-1                                                                          
          THE FORCE     EQUILIBRIUM RESPONSE WAS LINEAR IN THIS INCREMENT

 ITERATION SUMMARY FOR THE INCREMENT:   1 TOTAL ITERATIONS, OF WHICH
   0 ARE SEVERE DISCONTINUITY ITERATIONS AND  1 ARE EQUILIBRIUM ITERATIONS.

 TIME INCREMENT COMPLETED  1.000E-03,  FRACTION OF STEP COMPLETED  5.200E-02
 STEP TIME COMPLETED       5.200E-02,  TOTAL TIME COMPLETED        5.200E-02


  INCREMENT    53 STARTS. ATTEMPT NUMBER  1, TIME INCREMENT  1.000E-03
 
	SYMMETRIC NEW DIRECT SPARSE SOLVER RUNNING ON
 	1 HOST x 1 MPI RANK PER HOST x 1 THREAD PER RANK
        NUMBER OF EQUATIONS:  12
        NUMBER OF RHS:        1
        NUMBER OF FLOPS:      6.500e+02
        SOLVER ELAPSED TIME:  0ms

               CONVERGENCE CHECKS FOR EQUILIBRIUM ITERATION     1


 AVERAGE FORCE                      0.407       TIME AVG. FORCE       0.238    
 LARGEST SCALED RESIDUAL FORCE     -3.080E-09   AT NODE          1   DOF  3
   INSTANCE: ELEM-1                                                                          
  CORRESPONDING RESIDUAL FORCE     -3.080E-09
 LARGEST INCREMENT OF DISP.         4.404E-03   AT NODE          1   DOF  3
   INSTANCE: ELEM-1                                                                          
 LARGEST CORRECTION TO DISP.        4.231E-05   AT NODE          1   DOF  3
   INSTANCE: ELEM-1                                                                          
          THE FORCE     EQUILIBRIUM EQUATIONS HAVE CONVERGED

 ITERATION SUMMARY FOR THE INCREMENT:   1 TOTAL ITERATIONS, OF WHICH
   0 ARE SEVERE DISCONTINUITY ITERATIONS AND  1 ARE EQUILIBRIUM ITERATIONS.

 TIME INCREMENT COMPLETED  1.000E-03,  FRACTION OF STEP COMPLETED  5.300E-02
 STEP TIME COMPLETED       5.300E-02,  TOTAL TIME COMPLETED        5.300E-02


  INCREMENT    54 STARTS. ATTEMPT NUMBER  1, TIME INCREMENT  1.000E-03
 
	SYMMETRIC NEW DIRECT SPARSE SOLVER RUNNING ON
 	1 HOST x 1 MPI RANK PER HOST x 1 THREAD PER RANK
        NUMBER OF EQUATIONS:  12
        NUMBER OF RHS:        1
        NUMBER OF FLOPS:      6.500e+02
        SOLVER ELAPSED TIME:  1ms

               CONVERGENCE CHECKS FOR EQUILIBRIUM ITERATION     1


 AVERAGE FORCE                      0.410       TIME AVG. FORCE       0.241    
 LARGEST SCALED RESIDUAL FORCE      2.840E-19   AT NODE          3   DOF  3
   INSTANCE: ELEM-1                                                                          
  CORRESPONDING RESIDUAL FORCE      2.840E-19
 LARGEST INCREMENT OF DISP.         4.443E-03   AT NODE          2   DOF  3
   INSTANCE: ELEM-1                                                                          
 LARGEST CORRECTION TO DISP.        3.952E-05   AT NODE          2   DOF  3
   INSTANCE: ELEM-1                                                                          
          THE FORCE     EQUILIBRIUM RESPONSE WAS LINEAR IN THIS INCREMENT

 ITERATION SUMMARY FOR THE INCREMENT:   1 TOTAL ITERATIONS, OF WHICH
   0 ARE SEVERE DISCONTINUITY ITERATIONS AND  1 ARE EQUILIBRIUM ITERATIONS.

 TIME INCREMENT COMPLETED  1.000E-03,  FRACTION OF STEP COMPLETED  5.400E-02
 STEP TIME COMPLETED       5.400E-02,  TOTAL TIME COMPLETED        5.400E-02


  INCREMENT    55 STARTS. ATTEMPT NUMBER  1, TIME INCREMENT  1.000E-03
 
	SYMMETRIC NEW DIRECT SPARSE SOLVER RUNNING ON
 	1 HOST x 1 MPI RANK PER HOST x 1 THREAD PER RANK
        NUMBER OF EQUATIONS:  12
        NUMBER OF RHS:        1
[...]
 LARGEST INCREMENT OF DISP.         1.667E-04   AT NODE          3   DOF  2
   INSTANCE: ELEM-1                                                                          
 LARGEST CORRECTION TO DISP.       -3.037E-07   AT NODE          4   DOF  3
   INSTANCE: ELEM-1                                                                          
          THE FORCE     EQUILIBRIUM RESPONSE WAS LINEAR IN THIS INCREMENT

 ITERATION SUMMARY FOR THE INCREMENT:   1 TOTAL ITERATIONS, OF WHICH
   0 ARE SEVERE DISCONTINUITY ITERATIONS AND  1 ARE EQUILIBRIUM ITERATIONS.

 TIME INCREMENT COMPLETED  1.000E-03,  FRACTION OF STEP COMPLETED  0.987    
 STEP TIME COMPLETED       0.987    ,  TOTAL TIME COMPLETED        0.987    


  INCREMENT   988 STARTS. ATTEMPT NUMBER  1, TIME INCREMENT  1.000E-03
 
	SYMMETRIC NEW DIRECT SPARSE SOLVER RUNNING ON
 	1 HOST x 1 MPI RANK PER HOST x 1 THREAD PER RANK
        NUMBER OF EQUATIONS:  12
        NUMBER OF RHS:        1
        NUMBER OF FLOPS:      6.500e+02
        SOLVER ELAPSED TIME:  1ms

               CONVERGENCE CHECKS FOR EQUILIBRIUM ITERATION     1


 AVERAGE FORCE                      1.312E-03   TIME AVG. FORCE       0.110    
 LARGEST SCALED RESIDUAL FORCE      7.088E-10   AT NODE          2   DOF  3
   INSTANCE: ELEM-1                                                                          
  CORRESPONDING RESIDUAL FORCE      7.088E-10
 LARGEST INCREMENT OF DISP.         1.667E-04   AT NODE          3   DOF  2
   INSTANCE: ELEM-1                                                                          
 LARGEST CORRECTION TO DISP.       -3.078E-07   AT NODE          2   DOF  3
   INSTANCE: ELEM-1                                                                          
          THE FORCE     EQUILIBRIUM RESPONSE WAS LINEAR IN THIS INCREMENT

 ITERATION SUMMARY FOR THE INCREMENT:   1 TOTAL ITERATIONS, OF WHICH
   0 ARE SEVERE DISCONTINUITY ITERATIONS AND  1 ARE EQUILIBRIUM ITERATIONS.

 TIME INCREMENT COMPLETED  1.000E-03,  FRACTION OF STEP COMPLETED  0.988    
 STEP TIME COMPLETED       0.988    ,  TOTAL TIME COMPLETED        0.988    


  INCREMENT   989 STARTS. ATTEMPT NUMBER  1, TIME INCREMENT  1.000E-03
 
	SYMMETRIC NEW DIRECT SPARSE SOLVER RUNNING ON
 	1 HOST x 1 MPI RANK PER HOST x 1 THREAD PER RANK
        NUMBER OF EQUATIONS:  12
        NUMBER OF RHS:        1
        NUMBER OF FLOPS:      6.500e+02
        SOLVER ELAPSED TIME:  1ms

               CONVERGENCE CHECKS FOR EQUILIBRIUM ITERATION     1


 AVERAGE FORCE                      1.305E-03   TIME AVG. FORCE       0.110    
 LARGEST SCALED RESIDUAL FORCE      1.395E-09   AT NODE          1   DOF  3
   INSTANCE: ELEM-1                                                                          
  CORRESPONDING RESIDUAL FORCE      1.395E-09
 LARGEST INCREMENT OF DISP.         1.667E-04   AT NODE          3   DOF  2
   INSTANCE: ELEM-1                                                                          
 LARGEST CORRECTION TO DISP.       -3.027E-07   AT NODE          4   DOF  3
   INSTANCE: ELEM-1                                                                          
          THE FORCE     EQUILIBRIUM EQUATIONS HAVE CONVERGED

 ITERATION SUMMARY FOR THE INCREMENT:   1 TOTAL ITERATIONS, OF WHICH
   0 ARE SEVERE DISCONTINUITY ITERATIONS AND  1 ARE EQUILIBRIUM ITERATIONS.

 TIME INCREMENT COMPLETED  1.000E-03,  FRACTION OF STEP COMPLETED  0.989    
 STEP TIME COMPLETED       0.989    ,  TOTAL TIME COMPLETED        0.989    


  INCREMENT   990 STARTS. ATTEMPT NUMBER  1, TIME INCREMENT  1.000E-03
 
	SYMMETRIC NEW DIRECT SPARSE SOLVER RUNNING ON
 	1 HOST x 1 MPI RANK PER HOST x 1 THREAD PER RANK
        NUMBER OF EQUATIONS:  12
        NUMBER OF RHS:        1
        NUMBER OF FLOPS:      6.500e+02
        SOLVER ELAPSED TIME:  1ms

               CONVERGENCE CHECKS FOR EQUILIBRIUM ITERATION     1


 AVERAGE FORCE                      1.299E-03   TIME AVG. FORCE       0.110    
 LARGEST SCALED RESIDUAL FORCE      6.917E-17   AT NODE          1   DOF  3
   INSTANCE: ELEM-1                                                                          
  CORRESPONDING RESIDUAL FORCE      6.917E-17
 LARGEST INCREMENT OF DISP.         1.667E-04   AT NODE          3   DOF  2
   INSTANCE: ELEM-1                                                                          
 LARGEST CORRECTION TO DISP.       -2.977E-07   AT NODE          2   DOF  3
   INSTANCE: ELEM-1                                                                          
          THE FORCE     EQUILIBRIUM RESPONSE WAS LINEAR IN THIS INCREMENT

 ITERATION SUMMARY FOR THE INCREMENT:   1 TOTAL ITERATIONS, OF WHICH
   0 ARE SEVERE DISCONTINUITY ITERATIONS AND  1 ARE EQUILIBRIUM ITERATIONS.

 TIME INCREMENT COMPLETED  1.000E-03,  FRACTION OF STEP COMPLETED  0.990    
 STEP TIME COMPLETED       0.990    ,  TOTAL TIME COMPLETED        0.990    


  INCREMENT   991 STARTS. ATTEMPT NUMBER  1, TIME INCREMENT  1.000E-03
 
	SYMMETRIC NEW DIRECT SPARSE SOLVER RUNNING ON
 	1 HOST x 1 MPI RANK PER HOST x 1 THREAD PER RANK
        NUMBER OF EQUATIONS:  12
        NUMBER OF RHS:        1
        NUMBER OF FLOPS:      6.500e+02
        SOLVER ELAPSED TIME:  1ms

               CONVERGENCE CHECKS FOR EQUILIBRIUM ITERATION     1


 AVERAGE FORCE                      1.293E-03   TIME AVG. FORCE       0.110    
 LARGEST SCALED RESIDUAL FORCE      6.984E-10   AT NODE          4   DOF  3
   INSTANCE: ELEM-1                                                                          
  CORRESPONDING RESIDUAL FORCE      6.984E-10
 LARGEST INCREMENT OF DISP.         1.667E-04   AT NODE          3   DOF  2
   INSTANCE: ELEM-1                                                                          
 LARGEST CORRECTION TO DISP.       -3.018E-07   AT NODE          3   DOF  3
   INSTANCE: ELEM-1                                                                          
          THE FORCE     EQUILIBRIUM RESPONSE WAS LINEAR IN THIS INCREMENT

 ITERATION SUMMARY FOR THE INCREMENT:   1 TOTAL ITERATIONS, OF WHICH
   0 ARE SEVERE DISCONTINUITY ITERATIONS AND  1 ARE EQUILIBRIUM ITERATIONS.

 TIME INCREMENT COMPLETED  1.000E-03,  FRACTION OF STEP COMPLETED  0.991    
 STEP TIME COMPLETED       0.991    ,  TOTAL TIME COMPLETED        0.991    


  INCREMENT   992 STARTS. ATTEMPT NUMBER  1, TIME INCREMENT  1.000E-03
 
	SYMMETRIC NEW DIRECT SPARSE SOLVER RUNNING ON
 	1 HOST x 1 MPI RANK PER HOST x 1 THREAD PER RANK
        NUMBER OF EQUATIONS:  12
        NUMBER OF RHS:        1
        NUMBER OF FLOPS:      6.500e+02
        SOLVER ELAPSED TIME:  0ms

               CONVERGENCE CHECKS FOR EQUILIBRIUM ITERATION     1


 AVERAGE FORCE                      1.286E-03   TIME AVG. FORCE       0.110    
 LARGEST SCALED RESIDUAL FORCE      1.375E-09   AT NODE          1   DOF  3
   INSTANCE: ELEM-1                                                                          
  CORRESPONDING RESIDUAL FORCE      1.375E-09
 LARGEST INCREMENT OF DISP.         1.667E-04   AT NODE          3   DOF  2
   INSTANCE: ELEM-1                                                                          
 LARGEST CORRECTION TO DISP.       -2.967E-07   AT NODE          1   DOF  3
   INSTANCE: ELEM-1                                                                          
          THE FORCE     EQUILIBRIUM EQUATIONS HAVE CONVERGED

 ITERATION SUMMARY FOR THE INCREMENT:   1 TOTAL ITERATIONS, OF WHICH
   0 ARE SEVERE DISCONTINUITY ITERATIONS AND  1 ARE EQUILIBRIUM ITERATIONS.

 TIME INCREMENT COMPLETED  1.000E-03,  FRACTION OF STEP COMPLETED  0.992    
 STEP TIME COMPLETED       0.992    ,  TOTAL TIME COMPLETED        0.992    


  INCREMENT   993 STARTS. ATTEMPT NUMBER  1, TIME INCREMENT  1.000E-03
 
	SYMMETRIC NEW DIRECT SPARSE SOLVER RUNNING ON
 	1 HOST x 1 MPI RANK PER HOST x 1 THREAD PER RANK
        NUMBER OF EQUATIONS:  12
        NUMBER OF RHS:        1
        NUMBER OF FLOPS:      6.500e+02
        SOLVER ELAPSED TIME:  1ms

               CONVERGENCE CHECKS FOR EQUILIBRIUM ITERATION     1


 AVERAGE FORCE                      1.280E-03   TIME AVG. FORCE       0.110    
 LARGEST SCALED RESIDUAL FORCE      1.332E-16   AT NODE          1   DOF  3
   INSTANCE: ELEM-1                                                                          
  CORRESPONDING RESIDUAL FORCE      1.332E-16
 LARGEST INCREMENT OF DISP.         1.667E-04   AT NODE          3   DOF  2
   INSTANCE: ELEM-1                                                                          
 LARGEST CORRECTION TO DISP.       -2.919E-07   AT NODE          2   DOF  3
   INSTANCE: ELEM-1                                                                          
          THE FORCE     EQUILIBRIUM RESPONSE WAS LINEAR IN THIS INCREMENT

 ITERATION SUMMARY FOR THE INCREMENT:   1 TOTAL ITERATIONS, OF WHICH
   0 ARE SEVERE DISCONTINUITY ITERATIONS AND  1 ARE EQUILIBRIUM ITERATIONS.

 TIME INCREMENT COMPLETED  1.000E-03,  FRACTION OF STEP COMPLETED  0.993    
 STEP TIME COMPLETED       0.993    ,  TOTAL TIME COMPLETED        0.993    


  INCREMENT   994 STARTS. ATTEMPT NUMBER  1, TIME INCREMENT  1.000E-03
 
	SYMMETRIC NEW DIRECT SPARSE SOLVER RUNNING ON
 	1 HOST x 1 MPI RANK PER HOST x 1 THREAD PER RANK
        NUMBER OF EQUATIONS:  12
        NUMBER OF RHS:        1
        NUMBER OF FLOPS:      6.500e+02
        SOLVER ELAPSED TIME:  0ms

               CONVERGENCE CHECKS FOR EQUILIBRIUM ITERATION     1


 AVERAGE FORCE                      1.273E-03   TIME AVG. FORCE       0.109    
 LARGEST SCALED RESIDUAL FORCE      6.883E-10   AT NODE          1   DOF  3
   INSTANCE: ELEM-1                                                                          
  CORRESPONDING RESIDUAL FORCE      6.883E-10
 LARGEST INCREMENT OF DISP.         1.667E-04   AT NODE          3   DOF  2
   INSTANCE: ELEM-1                                                                          
 LARGEST CORRECTION TO DISP.       -2.959E-07   AT NODE          4   DOF  3
   INSTANCE: ELEM-1                                                                          
          THE FORCE     EQUILIBRIUM RESPONSE WAS LINEAR IN THIS INCREMENT

 ITERATION SUMMARY FOR THE INCREMENT:   1 TOTAL ITERATIONS, OF WHICH
   0 ARE SEVERE DISCONTINUITY ITERATIONS AND  1 ARE EQUILIBRIUM ITERATIONS.

 TIME INCREMENT COMPLETED  1.000E-03,  FRACTION OF STEP COMPLETED  0.994    
 STEP TIME COMPLETED       0.994    ,  TOTAL TIME COMPLETED        0.994    


  INCREMENT   995 STARTS. ATTEMPT NUMBER  1, TIME INCREMENT  1.000E-03
 
	SYMMETRIC NEW DIRECT SPARSE SOLVER RUNNING ON
 	1 HOST x 1 MPI RANK PER HOST x 1 THREAD PER RANK
        NUMBER OF EQUATIONS:  12
        NUMBER OF RHS:        1
        NUMBER OF FLOPS:      6.500e+02
        SOLVER ELAPSED TIME:  1ms

               CONVERGENCE CHECKS FOR EQUILIBRIUM ITERATION     1


 AVERAGE FORCE                      1.267E-03   TIME AVG. FORCE       0.109    
 LARGEST SCALED RESIDUAL FORCE      1.355E-09   AT NODE          1   DOF  3
   INSTANCE: ELEM-1                                                                          
  CORRESPONDING RESIDUAL FORCE      1.355E-09
 LARGEST INCREMENT OF DISP.         1.667E-04   AT NODE          3   DOF  2
   INSTANCE: ELEM-1                                                                          
 LARGEST CORRECTION TO DISP.       -2.910E-07   AT NODE          3   DOF  3
   INSTANCE: ELEM-1                                                                          
          THE FORCE     EQUILIBRIUM EQUATIONS HAVE CONVERGED

 ITERATION SUMMARY FOR THE INCREMENT:   1 TOTAL ITERATIONS, OF WHICH
   0 ARE SEVERE DISCONTINUITY ITERATIONS AND  1 ARE EQUILIBRIUM ITERATIONS.

 TIME INCREMENT COMPLETED  1.000E-03,  FRACTION OF STEP COMPLETED  0.995    
 STEP TIME COMPLETED       0.995    ,  TOTAL TIME COMPLETED        0.995    


  INCREMENT   996 STARTS. ATTEMPT NUMBER  1, TIME INCREMENT  1.000E-03
 
	SYMMETRIC NEW DIRECT SPARSE SOLVER RUNNING ON
 	1 HOST x 1 MPI RANK PER HOST x 1 THREAD PER RANK
        NUMBER OF EQUATIONS:  12
        NUMBER OF RHS:        1
        NUMBER OF FLOPS:      6.500e+02
        SOLVER ELAPSED TIME:  1ms

               CONVERGENCE CHECKS FOR EQUILIBRIUM ITERATION     1


 AVERAGE FORCE                      1.261E-03   TIME AVG. FORCE       0.109    
 LARGEST SCALED RESIDUAL FORCE      4.163E-20   AT NODE          1   DOF  3
   INSTANCE: ELEM-1                                                                          
  CORRESPONDING RESIDUAL FORCE      4.163E-20
 LARGEST INCREMENT OF DISP.         1.667E-04   AT NODE          3   DOF  2
   INSTANCE: ELEM-1                                                                          
 LARGEST CORRECTION TO DISP.       -2.862E-07   AT NODE          2   DOF  3
   INSTANCE: ELEM-1                                                                          
          THE FORCE     EQUILIBRIUM RESPONSE WAS LINEAR IN THIS INCREMENT

 ITERATION SUMMARY FOR THE INCREMENT:   1 TOTAL ITERATIONS, OF WHICH
   0 ARE SEVERE DISCONTINUITY ITERATIONS AND  1 ARE EQUILIBRIUM ITERATIONS.

 TIME INCREMENT COMPLETED  1.000E-03,  FRACTION OF STEP COMPLETED  0.996    
 STEP TIME COMPLETED       0.996    ,  TOTAL TIME COMPLETED        0.996    


  INCREMENT   997 STARTS. ATTEMPT NUMBER  1, TIME INCREMENT  1.000E-03
 
	SYMMETRIC NEW DIRECT SPARSE SOLVER RUNNING ON
 	1 HOST x 1 MPI RANK PER HOST x 1 THREAD PER RANK
        NUMBER OF EQUATIONS:  12
        NUMBER OF RHS:        1
        NUMBER OF FLOPS:      6.500e+02
        SOLVER ELAPSED TIME:  1ms

               CONVERGENCE CHECKS FOR EQUILIBRIUM ITERATION     1


 AVERAGE FORCE                      1.255E-03   TIME AVG. FORCE       0.109    
 LARGEST SCALED RESIDUAL FORCE      6.783E-10   AT NODE          2   DOF  3
   INSTANCE: ELEM-1                                                                          
  CORRESPONDING RESIDUAL FORCE      6.783E-10
 LARGEST INCREMENT OF DISP.         1.667E-04   AT NODE          3   DOF  2
   INSTANCE: ELEM-1                                                                          
 LARGEST CORRECTION TO DISP.       -2.901E-07   AT NODE          4   DOF  3
   INSTANCE: ELEM-1                                                                          
          THE FORCE     EQUILIBRIUM RESPONSE WAS LINEAR IN THIS INCREMENT

 ITERATION SUMMARY FOR THE INCREMENT:   1 TOTAL ITERATIONS, OF WHICH
   0 ARE SEVERE DISCONTINUITY ITERATIONS AND  1 ARE EQUILIBRIUM ITERATIONS.

 TIME INCREMENT COMPLETED  1.000E-03,  FRACTION OF STEP COMPLETED  0.997    
 STEP TIME COMPLETED       0.997    ,  TOTAL TIME COMPLETED        0.997    


  INCREMENT   998 STARTS. ATTEMPT NUMBER  1, TIME INCREMENT  1.000E-03
 
	SYMMETRIC NEW DIRECT SPARSE SOLVER RUNNING ON
 	1 HOST x 1 MPI RANK PER HOST x 1 THREAD PER RANK
        NUMBER OF EQUATIONS:  12
        NUMBER OF RHS:        1
        NUMBER OF FLOPS:      6.500e+02
        SOLVER ELAPSED TIME:  0ms

               CONVERGENCE CHECKS FOR EQUILIBRIUM ITERATION     1


 AVERAGE FORCE                      1.249E-03   TIME AVG. FORCE       0.109    
 LARGEST SCALED RESIDUAL FORCE      1.335E-09   AT NODE          3   DOF  3
   INSTANCE: ELEM-1                                                                          
  CORRESPONDING RESIDUAL FORCE      1.335E-09
 LARGEST INCREMENT OF DISP.         1.667E-04   AT NODE          3   DOF  2
   INSTANCE: ELEM-1                                                                          
 LARGEST CORRECTION TO DISP.       -2.853E-07   AT NODE          3   DOF  3
   INSTANCE: ELEM-1                                                                          
          THE FORCE     EQUILIBRIUM EQUATIONS HAVE CONVERGED

 ITERATION SUMMARY FOR THE INCREMENT:   1 TOTAL ITERATIONS, OF WHICH
   0 ARE SEVERE DISCONTINUITY ITERATIONS AND  1 ARE EQUILIBRIUM ITERATIONS.

 TIME INCREMENT COMPLETED  1.000E-03,  FRACTION OF STEP COMPLETED  0.998    
 STEP TIME COMPLETED       0.998    ,  TOTAL TIME COMPLETED        0.998    


  INCREMENT   999 STARTS. ATTEMPT NUMBER  1, TIME INCREMENT  1.000E-03
 
	SYMMETRIC NEW DIRECT SPARSE SOLVER RUNNING ON
 	1 HOST x 1 MPI RANK PER HOST x 1 THREAD PER RANK
        NUMBER OF EQUATIONS:  12
        NUMBER OF RHS:        1
        NUMBER OF FLOPS:      6.500e+02
        SOLVER ELAPSED TIME:  1ms

               CONVERGENCE CHECKS FOR EQUILIBRIUM ITERATION     1


 AVERAGE FORCE                      1.242E-03   TIME AVG. FORCE       0.109    
 LARGEST SCALED RESIDUAL FORCE     -6.909E-17   AT NODE          2   DOF  3
   INSTANCE: ELEM-1                                                                          
  CORRESPONDING RESIDUAL FORCE     -6.909E-17
 LARGEST INCREMENT OF DISP.         1.667E-04   AT NODE          3   DOF  2
   INSTANCE: ELEM-1                                                                          
 LARGEST CORRECTION TO DISP.       -2.807E-07   AT NODE          1   DOF  3
   INSTANCE: ELEM-1                                                                          
          THE FORCE     EQUILIBRIUM RESPONSE WAS LINEAR IN THIS INCREMENT

 ITERATION SUMMARY FOR THE INCREMENT:   1 TOTAL ITERATIONS, OF WHICH
   0 ARE SEVERE DISCONTINUITY ITERATIONS AND  1 ARE EQUILIBRIUM ITERATIONS.

 TIME INCREMENT COMPLETED  1.000E-03,  FRACTION OF STEP COMPLETED  0.999    
 STEP TIME COMPLETED       0.999    ,  TOTAL TIME COMPLETED        0.999    


  INCREMENT  1000 STARTS. ATTEMPT NUMBER  1, TIME INCREMENT  1.000E-03
 
	SYMMETRIC NEW DIRECT SPARSE SOLVER RUNNING ON
 	1 HOST x 1 MPI RANK PER HOST x 1 THREAD PER RANK
        NUMBER OF EQUATIONS:  12
        NUMBER OF RHS:        1
        NUMBER OF FLOPS:      6.500e+02
        SOLVER ELAPSED TIME:  1ms

               CONVERGENCE CHECKS FOR EQUILIBRIUM ITERATION     1


 AVERAGE FORCE                      1.236E-03   TIME AVG. FORCE       0.109    
 LARGEST SCALED RESIDUAL FORCE      6.685E-10   AT NODE          1   DOF  3
   INSTANCE: ELEM-1                                                                          
  CORRESPONDING RESIDUAL FORCE      6.685E-10
 LARGEST INCREMENT OF DISP.         1.667E-04   AT NODE          3   DOF  2
   INSTANCE: ELEM-1                                                                          
 LARGEST CORRECTION TO DISP.       -2.845E-07   AT NODE          3   DOF  3
   INSTANCE: ELEM-1                                                                          
          THE FORCE     EQUILIBRIUM RESPONSE WAS LINEAR IN THIS INCREMENT

 ITERATION SUMMARY FOR THE INCREMENT:   1 TOTAL ITERATIONS, OF WHICH
   0 ARE SEVERE DISCONTINUITY ITERATIONS AND  1 ARE EQUILIBRIUM ITERATIONS.

 TIME INCREMENT COMPLETED  1.000E-03,  FRACTION OF STEP COMPLETED   1.00    
 STEP TIME COMPLETED        1.00    ,  TOTAL TIME COMPLETED         1.00    


          THE ANALYSIS HAS BEEN COMPLETED



     ANALYSIS SUMMARY:
     TOTAL OF       1000  INCREMENTS
                       0  CUTBACKS IN AUTOMATIC INCREMENTATION
                    1001  ITERATIONS INCLUDING CONTACT ITERATIONS IF PRESENT
                    1001  PASSES THROUGH THE EQUATION SOLVER OF WHICH 
                     309  INVOLVE MATRIX DECOMPOSITION, INCLUDING
                       0  DECOMPOSITION(S) OF THE MASS MATRIX
                       1  REORDERING OF EQUATIONS TO MINIMIZE WAVEFRONT
                       0  ADDITIONAL RESIDUAL EVALUATIONS FOR LINE SEARCHES
                       0  ADDITIONAL OPERATOR EVALUATIONS FOR LINE SEARCHES
                       2  WARNING MESSAGES DURING USER INPUT PROCESSING
                       0  WARNING MESSAGES DURING ANALYSIS
                       0  ANALYSIS WARNINGS ARE NUMERICAL PROBLEM MESSAGES
                       0  ANALYSIS WARNINGS ARE NEGATIVE EIGENVALUE MESSAGES
                       0  ERROR MESSAGES



     JOB TIME SUMMARY
       USER TIME (SEC)      =      11.    
       SYSTEM TIME (SEC)    =      6.7    
       TOTAL CPU TIME (SEC) =      17.    
       WALLCLOCK TIME (SEC) =           22
       MEMORY PEAK (GB)     =            0
