1

   Abaqus 2023                                  Date 23-Jul-2026   Time 07:36:30
   For use by TECHNISCHE UNIVERSITAET BERGAKADEMIE FREIBERG under license from Dassault Systemes or its subsidiary.



                         The Abaqus Software is a product of:

                           Dassault Systemes SIMULIA Corp.
                           1301 Atwood Avenue, Suite 101W
                              Johnston, RI 02919, USA
 


                   The Abaqus Software is available only under license
                   from Dassault Systemes or its subsidiary and may be
                   used or reproduced only in accordance with the terms
                   of such license.
 
                          On machine mnode099.cluster 
                          you are authorized to run
                          Abaqus/Standard until 30-Nov-2026

                          Your site id is: 200000000053187 


 
                    For assistance or any other information you may
                    obtain contact information for your local office
                    from the world wide web at:

                      http://www.3ds.com/products/simulia/locations/

 
                * * * * * * * * * * * * * * * * * * * * * * * * * * * * * * 
                *                                                         * 
                *                   *****************                     * 
                *                   *  N O T I C E  *                     * 
                *                   *****************                     * 
                *                                                         * 
                *                                                         * 
                *                       Abaqus 2023                       * 
                *                                                         * 
                *          BUILD ID: 2022_09_28-20.11.55 183150           * 
                *                                                         * 
                *                                                         * 
                *  Please make sure you are using                         * 
                *  release Abaqus 2023 manuals                            * 
                *  plus the notes accompanying this release.              * 
                *                                                         * 
                *                                                         * 
                *                                                         * 
                *                                                         * 
                *                                                         * 
                *   This program may not be used for commercial purposes  * 
                *           without payment of a commercial fee.          * 
                *                                                         * 
                * * * * * * * * * * * * * * * * * * * * * * * * * * * * * * 


 



     PROCESSING PART, INSTANCE, AND ASSEMBLY INFORMATION
   *******************************************************


     END PROCESSING PART, INSTANCE, AND ASSEMBLY INFORMATION
   ***********************************************************




     OPTIONS BEING PROCESSED
   ***************************


  *User Element, nodes=4, type=U1, properties=3, coordinates=2, VARIABLES=8
  *User Element, nodes=4, type=U2, properties=4, coordinates=2, VARIABLES=56
  *Heading
  *Node
  *Element, type=U1, elset=PHASE
  *Elset, elset=PHASE, generate
  *Element, type=U2, elset=DISP
  *Elset, elset=DISP, generate
  *Element, type=CPS4, elset=UMATVIS
  *Elset, elset=UMATVIS, generate
  *Nset, nset=TOP
  *Nset, nset=BOTTOM
  *Nset, nset=ANCHOR
  *Material, name=UMATVIS
  *Depvar
  *User Material, constants=2
  *Solid Section, elset=UMATVIS, material=UMATVIS
  *User Element, nodes=4, type=U1, properties=3, coordinates=2, VARIABLES=8
  *User Element, nodes=4, type=U2, properties=4, coordinates=2, VARIABLES=56
  *Solid Section, elset=UMATVIS, material=UMATVIS
  *Boundary
  *Boundary
  *Boundary, op=NEW
  *Boundary
  *Uel Property, elset=PHASE
  *Uel Property, elset=DISP
  *Output, field
  *Output, field
  *Output, field
  *Element Output, elset=UMATVIS
  *Element Output, elset=UMATVIS
  *Element Output, elset=UMATVIS
  *Output, field
  *Output, field
  *Output, field
  *Element Output, elset=UMATVIS
  *Element Output, elset=UMATVIS
  *Element Output, elset=UMATVIS
  *Output, field
  *Output, field
  *Output, field
  *Element Output, elset=UMATVIS
  *Element Output, elset=UMATVIS
  *Element Output, elset=UMATVIS
  *Step, name=INGEST_TRANSFERRED_STATE, nlgeom=NO
  *Output, field
  *Step, name=CHECKPOINT_EQUILIBRATION_PHASE_FIXED, nlgeom=NO
  *Output, field
  *Step, name=PHASE_RELEASE_HOLD, nlgeom=NO
  *Output, field
  *Step, name=INGEST_TRANSFERRED_STATE, nlgeom=NO
  *Step, name=CHECKPOINT_EQUILIBRATION_PHASE_FIXED, nlgeom=NO
  *Step, name=PHASE_RELEASE_HOLD, nlgeom=NO
  *Step, name=INGEST_TRANSFERRED_STATE, nlgeom=NO
  *Static
  *Boundary
  *Output, field
  *Element Output, elset=UMATVIS
  *Node Output, nset=TOP
  *End Step

 ***WARNING: THE *ELEMENT OUTPUT OPTION IS NOT SUPPORTED FOR USER ELEMENTS

 ***WARNING: THE *ELEMENT OUTPUT OPTION IS NOT SUPPORTED FOR USER ELEMENTS
  *Step, name=CHECKPOINT_EQUILIBRATION_PHASE_FIXED, nlgeom=NO
  *Static
  *Boundary
  *Output, field
  *Element Output, elset=UMATVIS
  *Node Output, nset=TOP
  *End Step

 ***WARNING: THE *ELEMENT OUTPUT OPTION IS NOT SUPPORTED FOR USER ELEMENTS

 ***WARNING: THE *ELEMENT OUTPUT OPTION IS NOT SUPPORTED FOR USER ELEMENTS
  *Step, name=PHASE_RELEASE_HOLD, nlgeom=NO
  *Static
  *Boundary, op=NEW
  *Output, field
  *Element Output, elset=UMATVIS
  *Node Output, nset=TOP
  *End Step

 ***WARNING: THE *ELEMENT OUTPUT OPTION IS NOT SUPPORTED FOR USER ELEMENTS

 ***WARNING: THE *ELEMENT OUTPUT OPTION IS NOT SUPPORTED FOR USER ELEMENTS
  *Step, name=INGEST_TRANSFERRED_STATE, nlgeom=NO
  *Static
  *Boundary
  *End Step
  *Step, name=CHECKPOINT_EQUILIBRATION_PHASE_FIXED, nlgeom=NO
  *Static
  *Boundary
  *End Step
  *Step, name=PHASE_RELEASE_HOLD, nlgeom=NO
  *Static
  *Boundary, op=NEW
  *End Step



                            P R O B L E M   S I Z E


          NUMBER OF ELEMENTS IS                                 19200
          NUMBER OF NODES IS                                    13202
          NUMBER OF NODES DEFINED BY THE USER                   13202
          TOTAL NUMBER OF VARIABLES IN THE MODEL                19803
          (DEGREES OF FREEDOM PLUS MAX NO. OF ANY LAGRANGE MULTIPLIER
           VARIABLES. INCLUDE *PRINT,SOLVE=YES TO GET THE ACTUAL NUMBER.)



                              END OF USER INPUT PROCESSING



     JOB TIME SUMMARY
       USER TIME (SEC)      =     0.60    
       SYSTEM TIME (SEC)    =     7.00E-02
       TOTAL CPU TIME (SEC) =     0.67    
       WALLCLOCK TIME (SEC) =            2
