*Heading
** Job name: F43PRE3_GEOM_TMP Model name: ModeII_Geometry_Model
** Generated by: Abaqus/CAE 2023
*Preprint, echo=NO, model=NO, history=NO, contact=NO
**
** PARTS
**
*Part, name=PlatePart
*Node
      1,  0.464285702,         -0.5
      2,  0.428571433,         -0.5
      3,  0.392857134,         -0.5
      4,  0.357142866,         -0.5
      5,  0.321428567,         -0.5
      6,  0.285714298,         -0.5
      7,         0.25,         -0.5
      8,  0.214285716,         -0.5
      9,  0.178571433,         -0.5
     10,  0.142857149,         -0.5
     11,  0.107142858,         -0.5
     12, 0.0714285746,         -0.5
     13, 0.0357142873,         -0.5
     14,           0.,         -0.5
     15, -0.0357142873,         -0.5
     16, -0.0714285746,         -0.5
     17, -0.107142858,         -0.5
     18, -0.142857149,         -0.5
     19, -0.178571433,         -0.5
     20, -0.214285716,         -0.5
** ... 3779 like lines cut
*Element, type=CPE3
  1,  254, 2319, 2385
  2, 3761, 2872, 3224
  3, 3762,  655, 2783
  4, 3684, 2852, 2851
  5, 3146, 3112, 3019
  6, 2909, 2720, 2875
  7, 3734, 3142, 3175
  8, 2749, 3692, 2699
  9, 3400, 2002,  594
 10, 2742, 2679, 2634
 11, 2505, 2238, 2416
 12, 3352, 1773,  667
 13, 3531, 2670, 3456
 14,  391, 2946, 2825
 15, 2632, 2631, 2677
 16, 2341, 2416,  614
 17, 2847,  657, 2634
 18, 2320, 2313, 2252
 19, 2258,  710, 2167
 20, 3289, 3323, 1891
** ... 96 like lines cut
*Element, type=CPE4
 117,  825,   27, 1110, 3253
 118,  910, 3253,  924,  114
 119,  911, 1031,  925,  115
 120,  926,  116,  912, 1032
 121,  117,  913, 1033,  927
 122,  118,  914, 1034,  928
 123,  119,  915, 1035,  929
 124,  120,  916, 1036,  930
 125,  981,  121,  917, 1037
 126,  980,  122,  918, 1038
 127,  979,  123,  919, 1039
 128,  978,  124,  920, 1040
 129, 1042,  437, 1182,  976
 130, 1043,  976, 1182,  463
 131,  896,   99,  923, 1043
 132,   27,  824, 1046, 1110
 133, 1109, 2501, 2535, 1046
 134, 2569,  179,  925, 1031
 135, 1643, 1854, 1589, 3305
 136, 1428, 1353,  231, 1527
** ... 3580 like lines cut
*Nset, nset=_G5, internal, generate
    1,  3799,     1
*Elset, elset=_G5, internal, generate
    1,  3716,     1
** Section: SolidSection
*Solid Section, elset=_G5, material=Steel
1.,
*End Part
**  
**
** ASSEMBLY
**
*Assembly, name=Assembly
**  
*Instance, name=PlateInstance, part=PlatePart
*End Instance
**  
*Node
      1,           0.,  0.600000024,           0.
*Nset, nset=RP
 1,
*Nset, nset=bottom_nodes, instance=PlateInstance
   1,   2,   3,   4,   5,   6,   7,   8,   9,  10,  11,  12,  13,  14,  15,  16
  17,  18,  19,  20,  21,  22,  23,  24,  25,  26,  27,  28,  29, 798, 799, 800
 801, 802, 803, 804, 805, 806, 807, 808, 809, 810, 811, 812, 813, 814, 815, 816
 817, 818, 819, 820, 821, 822, 823, 824, 825
*Elset, elset=bottom_nodes, instance=PlateInstance
  117,  132,  149,  165,  180,  195,  211,  226,  241,  257,  272,  287,  302,  318,  349,  387
  415,  443,  470,  498,  525,  526,  555,  581,  609,  637,  665,  693, 1462, 1474, 1560, 1582
 1583, 1584, 1585, 1586, 1587, 1588, 1589, 1590, 1591, 1592, 1593, 1596, 1646, 1648, 1649, 1650
 1652, 1653, 1654, 1655, 1656, 1657, 1658, 1659
*Nset, nset=top_nodes, instance=PlateInstance
  57,  58,  59,  60,  61,  62,  63,  64,  65,  66,  67,  68,  69,  70,  71,  72
  73,  74,  75,  76,  77,  78,  79,  80,  81,  82,  83,  84,  85, 854, 855, 856
 857, 858, 859, 860, 861, 862, 863, 864, 865, 866, 867, 868, 869, 870, 871, 872
 873, 874, 875, 876, 877, 878, 879, 880, 881
*Elset, elset=top_nodes, instance=PlateInstance
  345,  347,  372,  374,  413,  441,  468,  496,  523,  552,  578,  606,  634,  662,  690,  720
  721,  723,  735,  746,  755,  765,  774,  782,  783,  790,  796,  801,  804, 1505, 1506, 1518
 1519, 1520, 1521, 1522, 1523, 1524, 1525, 1526, 1527, 1528, 1529, 1607, 1608, 1609, 1610, 1611
 1612, 1613, 1614, 1615, 1616, 1617, 1618, 1670
** Constraint: shear_coupling
*Equation
2
top_nodes, 1, 1.
RP, 1, -1.
*End Assembly
** 
** MATERIALS
** 
*Material, name=Steel
*Elastic
210000., 0.3
** 
** BOUNDARY CONDITIONS
** 
** Name: bottom_fix Type: Displacement/Rotation
*Boundary
bottom_nodes, 1, 1
bottom_nodes, 2, 2
** Name: top_vertical_fix Type: Displacement/Rotation
*Boundary
top_nodes, 2, 2
** ----------------------------------------------------------------
** 
** STEP: Step-1
** 
*Step, name=Step-1, nlgeom=NO
*Static
0.001, 1., 1e-05, 1.
** 
** BOUNDARY CONDITIONS
** 
** Name: prescribed_shear Type: Displacement/Rotation
*Boundary
RP, 1, 1, 0.001
** 
** OUTPUT REQUESTS
** 
*Restart, write, frequency=0
** 
** FIELD OUTPUT: F-Output-1
** 
*Output, field
*Node Output
RF, U
*Element Output, directions=YES
EVOL, MISESAVG, MISESERI, S
** 
** FIELD OUTPUT:  from REMESHING RULE: MISESERI_Adaptive_Rule
** 
*Output, field, frequency=99999
*Element Output, directions=YES
MISESERI, MISESAVG, S, EVOL
** 
** HISTORY OUTPUT: H-Output-1
** 
*Output, history, variable=PRESELECT
*End Step
