*Heading
 F43REM3 Refined Standard Input Deck
** Job name: F43REM3_NATIVE Model name: ModeII_Geometry_Model
** Generated by: Abaqus/CAE 2023
*Preprint, echo=NO, model=NO, history=NO, contact=NO
**
** PARTS
**
*Part, name=PlatePart
*Node
      1,   0.49274233,         -0.5
      2,  0.485449344,         -0.5
      3,  0.478112578,         -0.5
      4,  0.470694244,         -0.5
      5,  0.463187486,         -0.5
      6,  0.455588669,         -0.5
      7,  0.447894961,         -0.5
      8,  0.440139294,         -0.5
      9,  0.432377905,         -0.5
     10,  0.424631655,         -0.5
     11,  0.416992635,         -0.5
     12,  0.409475625,         -0.5
     13,  0.402096331,         -0.5
     14,  0.394863516,         -0.5
     15,  0.387761921,         -0.5
     16,   0.38076216,         -0.5
     17,  0.373857409,         -0.5
     18,  0.367013037,         -0.5
     19,  0.356818497,         -0.5
     20,  0.350047827,         -0.5
** ... 112828 like lines cut
*Element, type=CPE3
   1,  21025,    819,  20088
   2,  58714, 108739, 108738
   3,  83829,  84730,  82773
   4,  86937,  87200,  86426
   5,  85620,  85082,   4609
   6, 104354,  91660, 104642
   7,  59656,  59408,  59190
   8,  38147,  38032,  10589
   9,  43903,  35775,   9806
  10,  81059,  80837,  11241
  11,  42208,  41577,  72615
  12,  13448,  66544, 112160
  13,  99907,  35744,  35292
  14,  99666,  43975,  44236
  15, 105013, 105200,  77798
  16,  89175,  88811,  88827
  17,  41242,  41237,  10452
  18,  82728,  81493,  79843
  19,  84463,  85315,  12277
  20,  99545,  77323,  77541
** ... 3557 like lines cut
*Element, type=CPE4
  3578,  17758,  18984,  18199,    135
  3579,  20417,  19846,    601,  19828
  3580,    732,  19820,  20324,  20693
  3581,  20193,  95483,  95224,  20644
  3582,  21536,  20017,  21013,  95610
  3583,  20123,  21005,  20529,    729
  3584,  19708,  20387,    728,  20322
  3585,    727,  19688,  20473,  20656
  3586,    726,  19675,  20423,  20705
  3587,  21418,  20566,  20134,    724
  3588,  21418,    724,  21895,    854
  3589,    852,  74764,  20373,  20618
  3590,    722,  19626,  20479,  20618
  3591,    721,  20679,  20479,  19626
  3592,  20014,  20953,  22247,  95049
  3593,  79176,  76067,  20933,  21703
  3594,  20933,  20533,    848,  21703
  3595,  20595,    846,  21405,  20942
  3596,  20595,  20179,  20941,    846
  3597,  21407,    715,  20052,  20999
** ... 110339 like lines cut
*Nset, nset=_G5, internal, generate
      1,  112848,       1
*Elset, elset=_G5, internal, generate
      1,  113936,       1
** Section: SolidSection
*Solid Section, elset=_G5, material=Steel
1.,
*End Part
**  
**
** ASSEMBLY
**
*Assembly, name=Assembly
**  
*Instance, name=PlateInstance, part=PlatePart
*End Instance
**  
*Node
      1,           0.,  0.600000024,           0.
*Nset, nset=RP
 1,
*Nset, nset=bottom_nodes, instance=PlateInstance
     1,     2,     3,     4,     5,     6,     7,     8,     9,    10,    11,    12,    13,    14,    15,    16
    17,    18,    19,    20,    21,    22,    23,    24,    25,    26,    27,    28,    29,    30,    31,    32
    33,    34,    35,    36,    37,    38,    39,    40,    41,    42,    43,    44,    45,    46,    47,    48
    49,    50,    51,    52,    53,    54,    55,    56,    57,    58,    59,    60,    61,    62,    63,    64
    65,    66,    67,    68,    69,    70,    71,    72,    73,    74,    75,    76,    77,    78,    79,    80
    81,    82,    83,    84,    85,    86,    87,    88,    89,    90,    91,    92,    93,    94,    95,    96
    97,    98,    99,   100,   101,   102,   103,   104,   105,   106,   107,   108,   109,   110,   111,   112
   113,   114,   115,   116,   117,   118,   119,   120,   121,   122,   123,   124,   125,   126,   127,   128
   129,   130,   131,   132,   133,   134,   135, 17613, 17614, 17615, 17616, 17617, 17618, 17619, 17620, 17621
 17622, 17623, 17624, 17625, 17626, 17627, 17628, 17629, 17630, 17631, 17632, 17633, 17634, 17635, 17636, 17637
 17638, 17639, 17640, 17641, 17642, 17643, 17644, 17645, 17646, 17647, 17648, 17649, 17650, 17651, 17652, 17653
 17654, 17655, 17656, 17657, 17658, 17659, 17660, 17661, 17662, 17663, 17664, 17665, 17666, 17667, 17668, 17669
 17670, 17671, 17672, 17673, 17674, 17675, 17676, 17677, 17678, 17679, 17680, 17681, 17682, 17683, 17684, 17685
 17686, 17687, 17688, 17689, 17690, 17691, 17692, 17693, 17694, 17695, 17696, 17697, 17698, 17699, 17700, 17701
 17702, 17703, 17704, 17705, 17706, 17707, 17708, 17709, 17710, 17711, 17712, 17713, 17714, 17715, 17716, 17717
 17718, 17719, 17720, 17721, 17722, 17723, 17724, 17725, 17726, 17727, 17728, 17729, 17730, 17731, 17732, 17733
 17734, 17735, 17736, 17737, 17738, 17739, 17740, 17741, 17742, 17743, 17744, 17745, 17746, 17747, 17748, 17749
 17750, 17751, 17752, 17753, 17754, 17755, 17756, 17757, 17758
*Elset, elset=bottom_nodes, instance=PlateInstance
  3578,  3972,  3973,  3974,  3975,  3976,  3977,  3978,  3979,  3980,  3981,  3982,  3983,  3984,  3985,  3986
  3987,  3988,  3989,  3990,  3991,  3992,  3993,  3994,  3995,  3996,  3997,  3998,  3999,  4000,  4001,  4002
  4003,  4004,  4005,  4006,  4007,  4008,  4009,  4010,  4011,  4012,  4013,  4015,  4016,  4017,  4018,  4019
  4020,  4021,  4022,  4023,  4024,  4025,  4026,  4027,  4028,  4029,  4030,  4031,  4032,  4033,  4034,  4035
  4036,  4037,  4038,  4040,  4041,  4042,  4043,  4045,  4046,  4047,  4048,  4050,  4051,  4052,  4053,  4056
  4057,  4058,  4059,  4060,  4067,  4068,  4069,  4070,  4071,  4072,  4073,  4074,  4075,  4076,  4104,  4105
 19821, 19822, 19823, 19824, 19825, 19826, 19827, 19828, 19829, 19830, 19831, 19832, 19833, 19834, 19835, 19836
 19837, 19838, 19839, 19840, 19841, 19842, 19843, 19844, 19845, 19846, 19847, 19857, 19858, 19859, 19860, 19861
 19862, 19863, 19869, 19870, 19875, 19880, 19885, 19896, 19915, 19916, 19917, 19918, 19919, 19937, 35278, 35279
 35280, 35281, 35282, 35283, 35284, 35285, 35286, 35287, 35288, 35289, 35290, 35291, 35292, 35293, 35294, 35295
 35296, 35297, 35298, 35299, 35300, 35301, 35302, 35303, 35304, 35305, 35306, 35307, 35308, 35309, 35310, 35311
 35312, 35313, 35314, 35315, 35316, 35317, 35318, 35319, 35320, 35321, 35322, 35323, 35324, 35325, 35326, 35327
 35328, 35329, 35330, 35331, 35332, 35333, 35334, 35335, 35336, 35337, 35338, 35339, 35340, 35341, 35342, 35343
 35344, 35345, 35346, 35347, 35348, 35349, 35350, 35351, 35352, 35353, 35354, 35355, 35356, 35357, 35358, 35359
 35360, 35361, 35362, 35363, 35364, 35365, 35366, 35367, 35368, 35369, 35370, 35371, 35372, 35373, 35374, 35375
 35376, 35377, 35378, 35379, 35380, 35381, 35382, 35383, 35384, 35385, 35386, 35387, 35388, 35389, 35390, 35391
 35392, 35393, 35394, 35395, 35396, 35397, 35398, 35399, 35400, 35401, 35402, 35403, 35404, 35405, 35406, 35407
 35408, 35409, 35410, 35411, 35412, 35413, 36602, 36623
*Nset, nset=top_nodes, instance=PlateInstance
   269,   270,   271,   272,   273,   274,   275,   276,   277,   278,   279,   280,   281,   282,   283,   284
   285,   286,   287,   288,   289,   290,   291,   292,   293,   294,   295,   296,   297,   298,   299,   300
   301,   302,   303,   304,   305,   306,   307,   308,   309,   310,   311,   312,   313,   314,   315,   316
   317,   318,   319,   320,   321,   322,   323,   324,   325,   326,   327,   328,   329,   330,   331,   332
   333,   334,   335,   336,   337,   338,   339,   340,   341,   342,   343,   344,   345,   346,   347,   348
   349,   350,   351,   352,   353,   354,   355,   356,   357,   358,   359,   360,   361,   362,   363,   364
   365,   366,   367,   368,   369,   370,   371,   372,   373,   374,   375,   376,   377,   378,   379,   380
   381,   382,   383,   384,   385,   386,   387,   388,   389,   390,   391,   392,   393,   394,   395,   396
   397,   398,   399,   400,   401,   402,   403, 17906, 17907, 17908, 17909, 17910, 17911, 17912, 17913, 17914
 17915, 17916, 17917, 17918, 17919, 17920, 17921, 17922, 17923, 17924, 17925, 17926, 17927, 17928, 17929, 17930
 17931, 17932, 17933, 17934, 17935, 17936, 17937, 17938, 17939, 17940, 17941, 17942, 17943, 17944, 17945, 17946
 17947, 17948, 17949, 17950, 17951, 17952, 17953, 17954, 17955, 17956, 17957, 17958, 17959, 17960, 17961, 17962
 17963, 17964, 17965, 17966, 17967, 17968, 17969, 17970, 17971, 17972, 17973, 17974, 17975, 17976, 17977, 17978
 17979, 17980, 17981, 17982, 17983, 17984, 17985, 17986, 17987, 17988, 17989, 17990, 17991, 17992, 17993, 17994
 17995, 17996, 17997, 17998, 17999, 18000, 18001, 18002, 18003, 18004, 18005, 18006, 18007, 18008, 18009, 18010
 18011, 18012, 18013, 18014, 18015, 18016, 18017, 18018, 18019, 18020, 18021, 18022, 18023, 18024, 18025, 18026
 18027, 18028, 18029, 18030, 18031, 18032, 18033, 18034, 18035, 18036, 18037, 18038, 18039, 18040, 18041, 18042
 18043, 18044, 18045, 18046, 18047, 18048, 18049, 18050, 18051
*Elset, elset=top_nodes, instance=PlateInstance
   3834,   3836,   3838,   4228,   4351,   4473,   4593,   4715,   4834,   4835,   4953,   5064,   5182,   5298,   5410,   5523
   5632,   5746,   5854,   5967,   6077,   6185,   6291,   6397,   6501,   6605,   6707,   6811,   6914,   7011,   7109,   7204
   7300,   7399,   7496,   7590,   7678,   7767,   7768,   7856,   7946,   8036,   8122,   8213,   8300,   8383,   8465,   8466
   8549,   8628,   8708,   8791,   8871,   8947,   9026,   9104,   9178,   9257,   9332,   9404,   9478,   9546,   9617,   9686
   9756,   9822,   9888,   9954,  10021,  10085,  10147,  10209,  10270,  10332,  10389,  10445,  10505,  10561,  10617,  10673
  10728,  10779,  10830,  10881,  10932,  10978,  11025,  11073,  11120,  11167,  11211,  11257,  11301,  11343,  11385,  11386
  11425,  11464,  11500,  11538,  11575,  11611,  11646,  11681,  11714,  11747,  11779,  11810,  11866,  11892,  11918,  11943
  11967,  11990,  12010,  12031,  12052,  12071,  12090,  12108,  12124,  12140,  12155,  12181,  12193,  12203,  12213,  12222
  12230,  12237,  12243,  12248,  12252,  12255,  12256,  12258,  12259,  35553,  35554,  35555,  35556,  35557,  35558,  35559
  35560,  35561,  35562,  35563,  35564,  35565,  35566,  35567,  35568,  35569,  35570,  35571,  35572,  35573,  35574,  35575
  35576,  35577,  35578,  35579,  35580,  35581,  35582,  35583,  35584,  35585,  35586,  35587,  35588,  35589,  35590,  35591
  35592,  35593,  35594,  35595,  35596,  35597,  35598,  35599,  35600,  35601,  35602,  35603,  35604,  35605,  35606,  35607
  35608,  35609,  35610,  35611,  35612,  35613,  35614,  35615,  35616,  35617,  35618,  35619,  35620,  35621,  35622,  35623
  35624,  35625,  35626,  35627,  35628,  35629,  35630,  35631,  35632,  35633,  35634,  35635,  35636,  35637,  35638,  35639
  35640,  35641,  35642,  35643,  35644,  35645,  35646,  35647,  35648,  35649,  35650,  35651,  35652,  35653,  35654,  35655
  35656,  35657,  35658,  35659,  35660,  35661,  35662,  35663,  35664,  35665,  35666,  35667,  35668,  35669,  35670,  35671
  35672,  35673,  35674,  35675,  35676,  35677,  35678,  35679,  35680,  35681,  35682,  35683,  35684,  35685,  35686,  35687
  35688,  35689,  35690,  36299,  36545,  36556,  36595, 109071
** Constraint: shear_coupling
*Equation
2
top_nodes, 1, 1.
RP, 1, -1.
*End Assembly
** 
** MATERIALS
** 
*Material, name=Steel
*Elastic
210000., 0.3
** 
** BOUNDARY CONDITIONS
** 
** Name: bottom_fix Type: Displacement/Rotation
*Boundary
bottom_nodes, 1, 1
bottom_nodes, 2, 2
** Name: top_vertical_fix Type: Displacement/Rotation
*Boundary
top_nodes, 2, 2
** ----------------------------------------------------------------
** 
** STEP: Step-1
** 
*Step, name=Step-1, nlgeom=NO
*Static
0.001, 1., 1e-05, 1.
** 
** BOUNDARY CONDITIONS
** 
** Name: prescribed_shear Type: Displacement/Rotation
*Boundary
RP, 1, 1, 0.001
** 
** OUTPUT REQUESTS
** 
*Restart, write, frequency=0
** 
** FIELD OUTPUT: F-Output-1
** 
*Output, field
*Node Output
RF, U
*Element Output, directions=YES
EVOL, MISESAVG, MISESERI, S
** 
** FIELD OUTPUT:  from REMESHING RULE: MISESERI_Adaptive_Rule,  from REMESHING RULE: StageC_MISESERI_RemeshingRule
** Stage C MISESERI Native Adaptive Remeshing Rule
** 
*Output, field, frequency=99999
*Element Output, directions=YES
MISESERI, MISESAVG, S, EVOL
** 
** HISTORY OUTPUT: H-Output-1
** 
*Output, history, variable=PRESELECT
*End Step
