*Heading
 F43REM4 Refined Standard Input Deck F43REM4_PK1
** Job name: F43REM4_PK1 Model name: ModeII_Geometry_Model
** Generated by: Abaqus/CAE 2023
*Preprint, echo=NO, model=NO, history=NO, contact=NO
**
** PARTS
**
*Part, name=PlatePart
*Node
      1,  0.477611929,         -0.5
      2,  0.455223888,         -0.5
      3,  0.432835817,         -0.5
      4,  0.410447776,         -0.5
      5,  0.388059705,         -0.5
      6,  0.365671635,         -0.5
      7,  0.343283594,         -0.5
      8,  0.320895523,         -0.5
      9,  0.298507452,         -0.5
     10,  0.276119411,         -0.5
     11,   0.25373134,         -0.5
     12,  0.223880589,         -0.5
     13,  0.201492548,         -0.5
     14,  0.179104477,         -0.5
     15,  0.156716406,         -0.5
     16,  0.134328365,         -0.5
     17,  0.111940295,         -0.5
     18, 0.0895522535,         -0.5
     19, 0.0671641827,         -0.5
     20, 0.0447761118,         -0.5
** ... 21409 like lines cut
*Element, type=CPE3
  1,  5738,  5866,   805
  2,  9298,   843,  9143
  3,  9044,  8720,  8487
  4, 19933, 11623, 10965
  5,  7403,  7635,  6737
  6, 19567,  8031,  8180
  7, 14889, 14537, 14286
  8, 16301, 15904, 16110
  9, 13511, 13653, 13772
 10, 12005, 20003, 11653
 11, 12641, 20286, 12808
 12,  8266,  7886,  7533
 13, 16280, 16234, 16256
 14,  1823,  4637,  3507
 15, 18770, 18917,  1617
 16, 11560, 10822, 11033
 17,  6043,  5318,  5587
 18,  8048,  7778,   300
 19, 19689, 19461,  9790
 20,  7477,  7356,  7398
** ... 568 like lines cut
*Element, type=CPE4
  589,  3217,  2647,  2493,  3422
  590,  2256,  2255,  2361,  2360
  591,  2258,  2257,  2370,  2359
  592,  2260,  2259,  2372,  2362
  593,  2262,  2261,  2374,  2358
  594,  2264,  2263,  2376,  2363
  595,   183,  2266,  2364,  2379
  596,   184,  2268,  2347,  2381
  597,  2271,  2270,  2383,  2365
  598,  2273,  2272,  2385,  2366
  599,  2275,  2274,  2387,  2367
  600,  2368,  2352,   188,  2277
  601,  2279,  2278,  2392,  2348
  602,  2353,  2390,  2281,  2280
  603,   191,  2283,  2349,  2355
  604,   192,  2285,  2350,  2396
  605,  3537,  2982,  2985,  3525
  606,   194,  2289,  2351,  2398
  607,  2884,  3040,  3437,  2888
  608,   197,  2293, 18408, 18403
** ... 20789 like lines cut
*Nset, nset=_G5, internal, generate
     1,  21429,      1
*Elset, elset=_G5, internal, generate
     1,  21397,      1
** Section: SolidSection
*Solid Section, elset=_G5, material=Steel
1.,
*End Part
**  
**
** ASSEMBLY
**
*Assembly, name=Assembly
**  
*Instance, name=PlateInstance, part=PlatePart
*End Instance
**  
*Node
      1,           0.,  0.600000024,           0.
*Nset, nset=RP
 1,
*Nset, nset=bottom_nodes, instance=PlateInstance
    1,    2,    3,    4,    5,    6,    7,    8,    9,   10,   11,   12,   13,   14,   15,   16
   17,   18,   19,   20,   21,   22,   23,   24,   25,   26,   27,   28,   29,   30,   31,   32
   33,   34,   35,   36,   37,   38,   39,   40,   41,   42,   43,   44,   45, 1905, 1906, 1907
 1908, 1909, 1910, 1911, 1912, 1913, 1914, 1915, 1916, 1917, 1918, 1919, 1920, 1921, 1922, 1923
 1924, 1925, 1926, 1927, 1928, 1929, 1930, 1931, 1932, 1933, 1934, 1935, 1936, 1937, 1938, 1939
 1940, 1941, 1942, 1943, 1944, 1945, 1946, 1947, 1948, 1949, 1950, 1951, 1952, 1953, 1954, 1955
 1956, 1957, 1958, 1959, 1960, 1961, 1962, 1963, 1964, 1965, 1966, 1967, 1968, 1969, 1970, 1971
 1972, 1973, 1974, 1975, 1976, 1977, 1978, 1979, 1980, 1981, 1982, 1983, 1984, 1985, 1986, 1987
 1988, 1989, 1990, 1991, 1992, 1993, 1994
*Elset, elset=bottom_nodes, instance=PlateInstance
  612,  636,  658,  679,  680,  702,  725,  747,  748,  768,  788,  810,  811,  834,  856,  880
  902,  924,  947,  948,  971,  993, 1016, 1037, 1061, 1108, 1172, 1173, 1217, 1262, 1263, 1307
 1308, 1352, 1395, 1438, 1439, 1479, 1522, 1567, 1608, 1609, 1651, 1652, 1693, 1694, 1736, 1779
 1822, 1865, 1909, 1952, 1996, 4067, 4069, 4070, 4071, 4072, 4073, 4074, 4075, 4076, 4077, 4078
 4079, 4080, 4081, 4082, 4083, 4084, 4085, 4087, 4088, 4089, 4090, 4091, 4093, 4094, 4095, 4097
 4098, 4100, 4101, 4105, 4111, 4335, 4431, 4537, 4539, 4541, 4542, 4543, 4545, 4547, 4549, 4551
 4553, 4555, 4556, 4558, 4560, 4562, 4564, 4566, 4568, 4570, 4574, 4581, 4585, 4590, 4595, 4597
 4601, 4606, 4676, 4683, 4689, 4694, 4696, 4698, 4701, 4704, 4706, 4709, 4712, 4714, 4715, 4718
 4719, 4721, 4724, 4747, 4778, 4788
*Nset, nset=top_nodes, instance=PlateInstance
   89,   90,   91,   92,   93,   94,   95,   96,   97,   98,   99,  100,  101,  102,  103,  104
  105,  106,  107,  108,  109,  110,  111,  112,  113,  114,  115,  116,  117,  118,  119,  120
  121,  122,  123,  124,  125,  126,  127,  128,  129,  130,  131,  132,  133, 2085, 2086, 2087
 2088, 2089, 2090, 2091, 2092, 2093, 2094, 2095, 2096, 2097, 2098, 2099, 2100, 2101, 2102, 2103
 2104, 2105, 2106, 2107, 2108, 2109, 2110, 2111, 2112, 2113, 2114, 2115, 2116, 2117, 2118, 2119
 2120, 2121, 2122, 2123, 2124, 2125, 2126, 2127, 2128, 2129, 2130, 2131, 2132, 2133, 2134, 2135
 2136, 2137, 2138, 2139, 2140, 2141, 2142, 2143, 2144, 2145, 2146, 2147, 2148, 2149, 2150, 2151
 2152, 2153, 2154, 2155, 2156, 2157, 2158, 2159, 2160, 2161, 2162, 2163, 2164, 2165, 2166, 2167
 2168, 2169, 2170, 2171, 2172, 2173, 2174
*Elset, elset=top_nodes, instance=PlateInstance
 1104, 1105, 1106, 1148, 1150, 1215, 1260, 1305, 1349, 1350, 1392, 1436, 1476, 1519, 1564, 1606
 1607, 1649, 1691, 1733, 1734, 1776, 1819, 1862, 1863, 1906, 1949, 1994, 2044, 2065, 2066, 2084
 2103, 2120, 2121, 2138, 2152, 2164, 2165, 2179, 2192, 2204, 2212, 2213, 2222, 2223, 2230, 2238
 2245, 2251, 2255, 2259, 4113, 4114, 4181, 4183, 4184, 4185, 4186, 4187, 4188, 4190, 4191, 4192
 4193, 4194, 4195, 4196, 4197, 4198, 4199, 4200, 4201, 4203, 4204, 4205, 4206, 4208, 4209, 4210
 4212, 4213, 4214, 4215, 4217, 4218, 4219, 4221, 4222, 4223, 4225, 4227, 4228, 4230, 4231, 4232
 4233, 4234, 4236, 4238, 4240, 4242, 4244, 4245, 4246, 4247, 4248, 4250, 4251, 4252, 4410, 4572
 4576, 4578, 4584, 4587, 4589, 4591, 4592, 4593, 4596, 4600, 4605, 4608, 4610, 4611, 4613, 4654
 4657, 4660, 4662, 4666, 4748, 4793
** Constraint: shear_coupling
*Equation
2
top_nodes, 1, 1.
RP, 1, -1.
*End Assembly
** 
** MATERIALS
** 
*Material, name=Steel
*Elastic
210000., 0.3
** 
** BOUNDARY CONDITIONS
** 
** Name: bottom_fix Type: Displacement/Rotation
*Boundary
bottom_nodes, 1, 1
bottom_nodes, 2, 2
** Name: top_vertical_fix Type: Displacement/Rotation
*Boundary
top_nodes, 2, 2
** ----------------------------------------------------------------
** 
** STEP: Step-1
** 
*Step, name=Step-1, nlgeom=NO
*Static
0.001, 1., 1e-05, 1.
** 
** BOUNDARY CONDITIONS
** 
** Name: prescribed_shear Type: Displacement/Rotation
*Boundary
RP, 1, 1, 0.001
** 
** OUTPUT REQUESTS
** 
*Restart, write, frequency=0
** 
** FIELD OUTPUT: F-Output-1
** 
*Output, field
*Node Output
RF, U
*Element Output, directions=YES
EVOL, MISESAVG, MISESERI, S
** 
** FIELD OUTPUT:  from REMESHING RULE: F43REM4_PK1_ONLY_RULE
** 
*Output, field, frequency=99999
*Element Output, directions=YES
MISESERI, MISESAVG, S, EVOL
** 
** HISTORY OUTPUT: H-Output-1
** 
*Output, history, variable=PRESELECT
*End Step
