1

   Abaqus 2023                                  Date 22-Jul-2026   Time 10:49:10
   For use by TECHNISCHE UNIVERSITAET BERGAKADEMIE FREIBERG under license from Dassault Systemes or its subsidiary.

                                                                                 
                                                                                 
 STEP    1     INCREMENT     1     STEP TIME    0.00    


                        S T E P       1     S T A T I C   A N A L Y S I S


                                                                                          

     AUTOMATIC TIME CONTROL WITH -
          A SUGGESTED INITIAL TIME INCREMENT OF                 1.00    
          AND A TOTAL TIME PERIOD OF                            1.00    
          THE MINIMUM TIME INCREMENT ALLOWED IS                1.000E-05
          THE MAXIMUM TIME INCREMENT ALLOWED IS                 1.00    

     LINEAR EQUATION SOLVER TYPE         DIRECT SPARSE

 CONVERGENCE TOLERANCE PARAMETERS FOR FORCE    
     CRITERION FOR RESIDUAL FORCE     FOR A NONLINEAR PROBLEM          5.000E-03
     CRITERION FOR DISP.    CORRECTION IN A NONLINEAR PROBLEM          1.000E-02
     INITIAL VALUE OF TIME AVERAGE FORCE                               1.000E-02
     AVERAGE FORCE     IS TIME AVERAGE FORCE    
     ALTERNATE CRIT. FOR RESIDUAL FORCE     FOR A NONLINEAR PROBLEM    2.000E-02
     CRITERION FOR ZERO FORCE     RELATIVE TO TIME AVRG. FORCE         1.000E-05
     CRITERION FOR RESIDUAL FORCE     WHEN THERE IS ZERO FLUX          1.000E-05
     CRITERION FOR DISP.    CORRECTION WHEN THERE IS ZERO FLUX         1.000E-03
     CRITERION FOR RESIDUAL FORCE     FOR A LINEAR INCREMENT           1.000E-08
     FIELD CONVERSION RATIO                                             1.00    
     CRITERION FOR ZERO FORCE     REL. TO TIME AVRG. MAX. FORCE        1.000E-05
     CRITERION FOR ZERO DISP.    RELATIVE TO CHARACTERISTIC LENGTH     1.000E-08

     VOLUMETRIC STRAIN COMPATIBILITY TOLERANCE FOR HYBRID SOLIDS       1.000E-05
     AXIAL STRAIN COMPATIBILITY TOLERANCE FOR HYBRID BEAMS             1.000E-05
     TRANS. SHEAR STRAIN COMPATIBILITY TOLERANCE FOR HYBRID BEAMS      1.000E-05
     SOFT CONTACT CONSTRAINT COMPATIBILITY TOLERANCE FOR P>P0          5.000E-03
     SOFT CONTACT CONSTRAINT COMPATIBILITY TOLERANCE FOR P=0.0         0.100    
     CONTACT FORCE ERROR TOLERANCE FOR CONVERT SDI=YES                 1.00    
     DISPLACEMENT COMPATIBILITY TOLERANCE FOR DCOUP ELEMENTS           1.000E-05
     ROTATION COMPATIBILITY TOLERANCE FOR DCOUP ELEMENTS               1.000E-05

 EQUILIBRIUM WILL BE CHECKED FOR SEVERE DISCONTINUITY ITERATIONS

 TIME INCREMENTATION CONTROL PARAMETERS:
     FIRST EQUILIBRIUM ITERATION FOR CONSECUTIVE DIVERGENCE CHECK              4
     EQUILIBRIUM ITERATION AT WHICH LOG. CONVERGENCE RATE CHECK BEGINS         8
     EQUILIBRIUM ITERATION AFTER WHICH ALTERNATE RESIDUAL IS USED              9
     MAXIMUM EQUILIBRIUM ITERATIONS ALLOWED                                   16
     EQUILIBRIUM ITERATION COUNT FOR CUT-BACK IN NEXT INCREMENT               10
     MAXIMUM EQUILIB. ITERS IN TWO INCREMENTS FOR TIME INCREMENT INCREASE      4
     MAXIMUM ITERATIONS FOR SEVERE DISCONTINUITIES                            50
     MAXIMUM ATTEMPTS ALLOWED IN AN INCREMENT                                  5
     MAXIMUM DISCON. ITERS IN TWO INCREMENTS FOR TIME INCREMENT INCREASE      50
     MAXIMUM CONTACT AUGMENTATIONS FOR *SURFACE BEHAVIOR,AUGMENTED LAGRANGE   50
     CUT-BACK FACTOR AFTER DIVERGENCE                                 0.2500    
     CUT-BACK FACTOR FOR TOO SLOW CONVERGENCE                         0.5000    
     CUT-BACK FACTOR AFTER TOO MANY EQUILIBRIUM ITERATIONS            0.7500    
     CUT-BACK FACTOR AFTER TOO MANY SEVERE DISCONTINUITY ITERATIONS   0.2500    
     CUT-BACK FACTOR AFTER PROBLEMS IN ELEMENT ASSEMBLY               0.2500    
     INCREASE FACTOR AFTER TWO INCREMENTS THAT CONVERGE QUICKLY        1.500    
     MAX. TIME INCREMENT INCREASE FACTOR ALLOWED                       1.500    
     MAX. TIME INCREMENT INCREASE FACTOR ALLOWED (DYNAMICS)            1.250    
     MAX. TIME INCREMENT INCREASE FACTOR ALLOWED (DIFFUSION)           2.000    
     MINIMUM TIME INCREMENT RATIO FOR EXTRAPOLATION TO OCCUR          0.1000    
     MAX. RATIO OF TIME INCREMENT TO STABILITY LIMIT                   1.000    
     FRACTION OF STABILITY LIMIT FOR NEW TIME INCREMENT               0.9500    
     TIME INCREMENT INCREASE FACTOR BEFORE A TIME POINT                1.000    
     GLOBAL STABILIZATION CONTROL IS NOT USED

          PRINT OF INCREMENT NUMBER, TIME, ETC., EVERY    1  INCREMENTS

     THE MAXIMUM NUMBER OF INCREMENTS IN THIS STEP IS                       1

     LINEAR EXTRAPOLATION WILL BE USED

     CHARACTERISTIC ELEMENT LENGTH     0.375    

     DETAILS REGARDING ACTUAL SOLUTION WAVEFRONT REQUESTED

     DETAILED OUTPUT OF DIAGNOSTICS TO DATABASE REQUESTED

     PRINT OF INCREMENT NUMBER, TIME, ETC., TO THE MESSAGE FILE EVERY     1  INCREMENTS

     ELEMENT OPERATIONS WILL BE CARRIED OUT IN PARALLEL USING   4 THREADS ON 1 DOMAIN

     PARALLEL CONTACT TRACKING ENABLED


     COLLECTING MODEL CONSTRAINT INFORMATION FOR OVERCONSTRAINT CHECKS

     COLLECTING STEP CONSTRAINT INFORMATION FOR OVERCONSTRAINT CHECKS


  INCREMENT     1 STARTS. ATTEMPT NUMBER  1, TIME INCREMENT   1.00    
 
     INITIAL ELEMENT LOAD BALANCE
            DOMAIN    1     THREAD    NUMBER OF ELEMENTS
                              1            6
                              2            7
                              3            6
                              4            5

 ***WARNING: THERE ARE 2 UNCONNECTED REGIONS IN THE MODEL.

 ***NOTE: SFM TYPE SURFACE ELEMENTS USED TO DEFINE CONTACT SURFACES NOT PART OF 
          A RIGID BODY MAY INCREASE THE NUMBER OR UNCONNECTED REGIONS REPORTED.
 
	SYMMETRIC DIRECT SPARSE SOLVER RUNNING ON
 	1 HOST:        1 MPI RANK  x 4 THREADS
 	NUMBER OF EQUATIONS:     45
 	NUMBER OF RHS:           1
 	NUMBER OF FLOPS:         2.990e+03

     CHECK POINT  START OF SOLVER     

     CHECK POINT  END OF SOLVER       

       ELAPSED USER TIME (SEC)      =  1.00000E-02
       ELAPSED SYSTEM TIME (SEC)    =   0.0000    
       ELAPSED TOTAL CPU TIME (SEC) =  1.00000E-02
       ELAPSED WALLCLOCK TIME (SEC) =            0

               CONVERGENCE CHECKS FOR EQUILIBRIUM ITERATION     1


 AVERAGE FORCE                       0.00       TIME AVG. FORCE       1.000E-02
 ALL FORCE     RESIDUALS ARE ZERO
 LARGEST INCREMENT OF DISP.         0.573       AT NODE          9   DOF  3
 LARGEST CORRECTION TO DISP.        0.573       AT NODE          9   DOF  3
          THERE IS ZERO FORCE     EVERYWHERE

 ITERATION SUMMARY FOR THE INCREMENT:   1 TOTAL ITERATIONS, OF WHICH
   0 ARE SEVERE DISCONTINUITY ITERATIONS AND  1 ARE EQUILIBRIUM ITERATIONS.

 TIME INCREMENT COMPLETED   1.00    ,  FRACTION OF STEP COMPLETED   1.00    
 STEP TIME COMPLETED        1.00    ,  TOTAL TIME COMPLETED         1.00    
1

   Abaqus 2023                                  Date 22-Jul-2026   Time 10:49:11
   For use by TECHNISCHE UNIVERSITAET BERGAKADEMIE FREIBERG under license from Dassault Systemes or its subsidiary.

                                                                                 
                                                                                 
 STEP    2     INCREMENT     1     STEP TIME    0.00    


                        S T E P       2     S T A T I C   A N A L Y S I S


                                                                                          

     AUTOMATIC TIME CONTROL WITH -
          A SUGGESTED INITIAL TIME INCREMENT OF                0.500    
          AND A TOTAL TIME PERIOD OF                            1.00    
          THE MINIMUM TIME INCREMENT ALLOWED IS                1.000E-05
          THE MAXIMUM TIME INCREMENT ALLOWED IS                 1.00    

     LINEAR EQUATION SOLVER TYPE         DIRECT SPARSE

 CONVERGENCE TOLERANCE PARAMETERS FOR FORCE    
     CRITERION FOR RESIDUAL FORCE     FOR A NONLINEAR PROBLEM          5.000E-03
     CRITERION FOR DISP.    CORRECTION IN A NONLINEAR PROBLEM          1.000E-02
     INIT. VALUE OF TIME AVG. FORCE     IS TIME AVG. FORCE     IN PREVIOUS STEP
     AVERAGE FORCE     IS TIME AVERAGE FORCE    
     ALTERNATE CRIT. FOR RESIDUAL FORCE     FOR A NONLINEAR PROBLEM    2.000E-02
     CRITERION FOR ZERO FORCE     RELATIVE TO TIME AVRG. FORCE         1.000E-05
     CRITERION FOR RESIDUAL FORCE     WHEN THERE IS ZERO FLUX          1.000E-05
     CRITERION FOR DISP.    CORRECTION WHEN THERE IS ZERO FLUX         1.000E-03
     CRITERION FOR RESIDUAL FORCE     FOR A LINEAR INCREMENT           1.000E-08
     FIELD CONVERSION RATIO                                             1.00    
     CRITERION FOR ZERO FORCE     REL. TO TIME AVRG. MAX. FORCE        1.000E-05
     CRITERION FOR ZERO DISP.    RELATIVE TO CHARACTERISTIC LENGTH     1.000E-08

     VOLUMETRIC STRAIN COMPATIBILITY TOLERANCE FOR HYBRID SOLIDS       1.000E-05
     AXIAL STRAIN COMPATIBILITY TOLERANCE FOR HYBRID BEAMS             1.000E-05
     TRANS. SHEAR STRAIN COMPATIBILITY TOLERANCE FOR HYBRID BEAMS      1.000E-05
     SOFT CONTACT CONSTRAINT COMPATIBILITY TOLERANCE FOR P>P0          5.000E-03
     SOFT CONTACT CONSTRAINT COMPATIBILITY TOLERANCE FOR P=0.0         0.100    
     CONTACT FORCE ERROR TOLERANCE FOR CONVERT SDI=YES                 1.00    
     DISPLACEMENT COMPATIBILITY TOLERANCE FOR DCOUP ELEMENTS           1.000E-05
     ROTATION COMPATIBILITY TOLERANCE FOR DCOUP ELEMENTS               1.000E-05

 EQUILIBRIUM WILL BE CHECKED FOR SEVERE DISCONTINUITY ITERATIONS

 TIME INCREMENTATION CONTROL PARAMETERS:
     FIRST EQUILIBRIUM ITERATION FOR CONSECUTIVE DIVERGENCE CHECK              4
     EQUILIBRIUM ITERATION AT WHICH LOG. CONVERGENCE RATE CHECK BEGINS         8
     EQUILIBRIUM ITERATION AFTER WHICH ALTERNATE RESIDUAL IS USED              9
     MAXIMUM EQUILIBRIUM ITERATIONS ALLOWED                                   16
     EQUILIBRIUM ITERATION COUNT FOR CUT-BACK IN NEXT INCREMENT               10
     MAXIMUM EQUILIB. ITERS IN TWO INCREMENTS FOR TIME INCREMENT INCREASE      4
     MAXIMUM ITERATIONS FOR SEVERE DISCONTINUITIES                            50
     MAXIMUM ATTEMPTS ALLOWED IN AN INCREMENT                                  5
     MAXIMUM DISCON. ITERS IN TWO INCREMENTS FOR TIME INCREMENT INCREASE      50
     MAXIMUM CONTACT AUGMENTATIONS FOR *SURFACE BEHAVIOR,AUGMENTED LAGRANGE   50
     CUT-BACK FACTOR AFTER DIVERGENCE                                 0.2500    
     CUT-BACK FACTOR FOR TOO SLOW CONVERGENCE                         0.5000    
     CUT-BACK FACTOR AFTER TOO MANY EQUILIBRIUM ITERATIONS            0.7500    
     CUT-BACK FACTOR AFTER TOO MANY SEVERE DISCONTINUITY ITERATIONS   0.2500    
     CUT-BACK FACTOR AFTER PROBLEMS IN ELEMENT ASSEMBLY               0.2500    
     INCREASE FACTOR AFTER TWO INCREMENTS THAT CONVERGE QUICKLY        1.500    
     MAX. TIME INCREMENT INCREASE FACTOR ALLOWED                       1.500    
     MAX. TIME INCREMENT INCREASE FACTOR ALLOWED (DYNAMICS)            1.250    
     MAX. TIME INCREMENT INCREASE FACTOR ALLOWED (DIFFUSION)           2.000    
     MINIMUM TIME INCREMENT RATIO FOR EXTRAPOLATION TO OCCUR          0.1000    
     MAX. RATIO OF TIME INCREMENT TO STABILITY LIMIT                   1.000    
     FRACTION OF STABILITY LIMIT FOR NEW TIME INCREMENT               0.9500    
     TIME INCREMENT INCREASE FACTOR BEFORE A TIME POINT                1.000    
     GLOBAL STABILIZATION CONTROL IS NOT USED

          PRINT OF INCREMENT NUMBER, TIME, ETC., EVERY    1  INCREMENTS

     THE MAXIMUM NUMBER OF INCREMENTS IN THIS STEP IS                      50

     LINEAR EXTRAPOLATION WILL BE USED

     CHARACTERISTIC ELEMENT LENGTH     0.375    

     DETAILS REGARDING ACTUAL SOLUTION WAVEFRONT REQUESTED

     DETAILED OUTPUT OF DIAGNOSTICS TO DATABASE REQUESTED

     PRINT OF INCREMENT NUMBER, TIME, ETC., TO THE MESSAGE FILE EVERY     1  INCREMENTS

     ELEMENT OPERATIONS WILL BE CARRIED OUT IN PARALLEL USING   4 THREADS ON 1 DOMAIN

     COLLECTING STEP CONSTRAINT INFORMATION FOR OVERCONSTRAINT CHECKS


  INCREMENT     1 STARTS. ATTEMPT NUMBER  1, TIME INCREMENT  0.500    
 
     INITIAL ELEMENT LOAD BALANCE
            DOMAIN    1     THREAD    NUMBER OF ELEMENTS
                              1            7
                              2            5
                              3            6
                              4            6

 ***WARNING: THERE ARE 2 UNCONNECTED REGIONS IN THE MODEL.

 ***NOTE: SFM TYPE SURFACE ELEMENTS USED TO DEFINE CONTACT SURFACES NOT PART OF 
          A RIGID BODY MAY INCREASE THE NUMBER OR UNCONNECTED REGIONS REPORTED.
 
	SYMMETRIC DIRECT SPARSE SOLVER RUNNING ON
 	1 HOST:        1 MPI RANK  x 4 THREADS
 	NUMBER OF EQUATIONS:     45
 	NUMBER OF RHS:           1
 	NUMBER OF FLOPS:         2.990e+03

     CHECK POINT  START OF SOLVER     

     CHECK POINT  END OF SOLVER       

       ELAPSED USER TIME (SEC)      =   0.0000    
       ELAPSED SYSTEM TIME (SEC)    =   0.0000    
       ELAPSED TOTAL CPU TIME (SEC) =   0.0000    
       ELAPSED WALLCLOCK TIME (SEC) =            0

               CONVERGENCE CHECKS FOR EQUILIBRIUM ITERATION     1


 AVERAGE FORCE                       0.00       TIME AVG. FORCE       1.000E-02
 ALL FORCE     RESIDUALS ARE ZERO
 ALL DISP.    INCREMENTS ARE ZERO
 ALL CORRECTION TO DISP.    ARE ZERO
          THERE IS ZERO FORCE     EVERYWHERE

 ITERATION SUMMARY FOR THE INCREMENT:   1 TOTAL ITERATIONS, OF WHICH
   0 ARE SEVERE DISCONTINUITY ITERATIONS AND  1 ARE EQUILIBRIUM ITERATIONS.

 TIME INCREMENT COMPLETED  0.500    ,  FRACTION OF STEP COMPLETED  0.500    
 STEP TIME COMPLETED       0.500    ,  TOTAL TIME COMPLETED         1.50    


  INCREMENT     2 STARTS. ATTEMPT NUMBER  1, TIME INCREMENT  0.500    
 
	SYMMETRIC DIRECT SPARSE SOLVER RUNNING ON
 	1 HOST:        1 MPI RANK  x 4 THREADS
 	NUMBER OF EQUATIONS:     45
 	NUMBER OF RHS:           1
 	NUMBER OF FLOPS:         2.990e+03

     CHECK POINT  START OF SOLVER     

     CHECK POINT  END OF SOLVER       

       ELAPSED USER TIME (SEC)      =   0.0000    
       ELAPSED SYSTEM TIME (SEC)    =   0.0000    
       ELAPSED TOTAL CPU TIME (SEC) =   0.0000    
       ELAPSED WALLCLOCK TIME (SEC) =            0

               CONVERGENCE CHECKS FOR EQUILIBRIUM ITERATION     1


 AVERAGE FORCE                       0.00       TIME AVG. FORCE       1.000E-02
 ALL FORCE     RESIDUALS ARE ZERO
 ALL DISP.    INCREMENTS ARE ZERO
 ALL CORRECTION TO DISP.    ARE ZERO
          THERE IS ZERO FORCE     EVERYWHERE

 ITERATION SUMMARY FOR THE INCREMENT:   1 TOTAL ITERATIONS, OF WHICH
   0 ARE SEVERE DISCONTINUITY ITERATIONS AND  1 ARE EQUILIBRIUM ITERATIONS.

 TIME INCREMENT COMPLETED  0.500    ,  FRACTION OF STEP COMPLETED   1.00    
 STEP TIME COMPLETED        1.00    ,  TOTAL TIME COMPLETED         2.00    
1

   Abaqus 2023                                  Date 22-Jul-2026   Time 10:49:11
   For use by TECHNISCHE UNIVERSITAET BERGAKADEMIE FREIBERG under license from Dassault Systemes or its subsidiary.

                                                                                 
                                                                                 
 STEP    3     INCREMENT     1     STEP TIME    0.00    


                        S T E P       3     S T A T I C   A N A L Y S I S


                                                                                          

     AUTOMATIC TIME CONTROL WITH -
          A SUGGESTED INITIAL TIME INCREMENT OF                0.500    
          AND A TOTAL TIME PERIOD OF                            1.00    
          THE MINIMUM TIME INCREMENT ALLOWED IS                1.000E-05
          THE MAXIMUM TIME INCREMENT ALLOWED IS                 1.00    

     LINEAR EQUATION SOLVER TYPE         DIRECT SPARSE

 CONVERGENCE TOLERANCE PARAMETERS FOR FORCE    
     CRITERION FOR RESIDUAL FORCE     FOR A NONLINEAR PROBLEM          5.000E-03
     CRITERION FOR DISP.    CORRECTION IN A NONLINEAR PROBLEM          1.000E-02
     INIT. VALUE OF TIME AVG. FORCE     IS TIME AVG. FORCE     IN PREVIOUS STEP
     AVERAGE FORCE     IS TIME AVERAGE FORCE    
     ALTERNATE CRIT. FOR RESIDUAL FORCE     FOR A NONLINEAR PROBLEM    2.000E-02
     CRITERION FOR ZERO FORCE     RELATIVE TO TIME AVRG. FORCE         1.000E-05
     CRITERION FOR RESIDUAL FORCE     WHEN THERE IS ZERO FLUX          1.000E-05
     CRITERION FOR DISP.    CORRECTION WHEN THERE IS ZERO FLUX         1.000E-03
     CRITERION FOR RESIDUAL FORCE     FOR A LINEAR INCREMENT           1.000E-08
     FIELD CONVERSION RATIO                                             1.00    
     CRITERION FOR ZERO FORCE     REL. TO TIME AVRG. MAX. FORCE        1.000E-05
     CRITERION FOR ZERO DISP.    RELATIVE TO CHARACTERISTIC LENGTH     1.000E-08

     VOLUMETRIC STRAIN COMPATIBILITY TOLERANCE FOR HYBRID SOLIDS       1.000E-05
     AXIAL STRAIN COMPATIBILITY TOLERANCE FOR HYBRID BEAMS             1.000E-05
     TRANS. SHEAR STRAIN COMPATIBILITY TOLERANCE FOR HYBRID BEAMS      1.000E-05
     SOFT CONTACT CONSTRAINT COMPATIBILITY TOLERANCE FOR P>P0          5.000E-03
     SOFT CONTACT CONSTRAINT COMPATIBILITY TOLERANCE FOR P=0.0         0.100    
     CONTACT FORCE ERROR TOLERANCE FOR CONVERT SDI=YES                 1.00    
     DISPLACEMENT COMPATIBILITY TOLERANCE FOR DCOUP ELEMENTS           1.000E-05
     ROTATION COMPATIBILITY TOLERANCE FOR DCOUP ELEMENTS               1.000E-05

 EQUILIBRIUM WILL BE CHECKED FOR SEVERE DISCONTINUITY ITERATIONS

 TIME INCREMENTATION CONTROL PARAMETERS:
     FIRST EQUILIBRIUM ITERATION FOR CONSECUTIVE DIVERGENCE CHECK              4
     EQUILIBRIUM ITERATION AT WHICH LOG. CONVERGENCE RATE CHECK BEGINS         8
     EQUILIBRIUM ITERATION AFTER WHICH ALTERNATE RESIDUAL IS USED              9
     MAXIMUM EQUILIBRIUM ITERATIONS ALLOWED                                   16
     EQUILIBRIUM ITERATION COUNT FOR CUT-BACK IN NEXT INCREMENT               10
     MAXIMUM EQUILIB. ITERS IN TWO INCREMENTS FOR TIME INCREMENT INCREASE      4
     MAXIMUM ITERATIONS FOR SEVERE DISCONTINUITIES                            50
     MAXIMUM ATTEMPTS ALLOWED IN AN INCREMENT                                  5
     MAXIMUM DISCON. ITERS IN TWO INCREMENTS FOR TIME INCREMENT INCREASE      50
     MAXIMUM CONTACT AUGMENTATIONS FOR *SURFACE BEHAVIOR,AUGMENTED LAGRANGE   50
     CUT-BACK FACTOR AFTER DIVERGENCE                                 0.2500    
     CUT-BACK FACTOR FOR TOO SLOW CONVERGENCE                         0.5000    
     CUT-BACK FACTOR AFTER TOO MANY EQUILIBRIUM ITERATIONS            0.7500    
     CUT-BACK FACTOR AFTER TOO MANY SEVERE DISCONTINUITY ITERATIONS   0.2500    
     CUT-BACK FACTOR AFTER PROBLEMS IN ELEMENT ASSEMBLY               0.2500    
     INCREASE FACTOR AFTER TWO INCREMENTS THAT CONVERGE QUICKLY        1.500    
     MAX. TIME INCREMENT INCREASE FACTOR ALLOWED                       1.500    
     MAX. TIME INCREMENT INCREASE FACTOR ALLOWED (DYNAMICS)            1.250    
     MAX. TIME INCREMENT INCREASE FACTOR ALLOWED (DIFFUSION)           2.000    
     MINIMUM TIME INCREMENT RATIO FOR EXTRAPOLATION TO OCCUR          0.1000    
     MAX. RATIO OF TIME INCREMENT TO STABILITY LIMIT                   1.000    
     FRACTION OF STABILITY LIMIT FOR NEW TIME INCREMENT               0.9500    
     TIME INCREMENT INCREASE FACTOR BEFORE A TIME POINT                1.000    
     GLOBAL STABILIZATION CONTROL IS NOT USED

          PRINT OF INCREMENT NUMBER, TIME, ETC., EVERY    1  INCREMENTS

     THE MAXIMUM NUMBER OF INCREMENTS IN THIS STEP IS                      50

     LINEAR EXTRAPOLATION WILL BE USED

     CHARACTERISTIC ELEMENT LENGTH     0.375    

     DETAILS REGARDING ACTUAL SOLUTION WAVEFRONT REQUESTED

     DETAILED OUTPUT OF DIAGNOSTICS TO DATABASE REQUESTED

     PRINT OF INCREMENT NUMBER, TIME, ETC., TO THE MESSAGE FILE EVERY     1  INCREMENTS

     ELEMENT OPERATIONS WILL BE CARRIED OUT IN PARALLEL USING   4 THREADS ON 1 DOMAIN

     COLLECTING STEP CONSTRAINT INFORMATION FOR OVERCONSTRAINT CHECKS


  INCREMENT     1 STARTS. ATTEMPT NUMBER  1, TIME INCREMENT  0.500    
 
     INITIAL ELEMENT LOAD BALANCE
            DOMAIN    1     THREAD    NUMBER OF ELEMENTS
                              1            7
                              2            5
                              3            6
                              4            6

 ***WARNING: THERE ARE 2 UNCONNECTED REGIONS IN THE MODEL.

 ***NOTE: SFM TYPE SURFACE ELEMENTS USED TO DEFINE CONTACT SURFACES NOT PART OF 
          A RIGID BODY MAY INCREASE THE NUMBER OR UNCONNECTED REGIONS REPORTED.
 
	SYMMETRIC DIRECT SPARSE SOLVER RUNNING ON
 	1 HOST:        1 MPI RANK  x 4 THREADS
 	NUMBER OF EQUATIONS:     45
 	NUMBER OF RHS:           1
 	NUMBER OF FLOPS:         2.990e+03

     CHECK POINT  START OF SOLVER     

     CHECK POINT  END OF SOLVER       

       ELAPSED USER TIME (SEC)      =   0.0000    
       ELAPSED SYSTEM TIME (SEC)    =   0.0000    
       ELAPSED TOTAL CPU TIME (SEC) =   0.0000    
       ELAPSED WALLCLOCK TIME (SEC) =            0

               CONVERGENCE CHECKS FOR EQUILIBRIUM ITERATION     1


 AVERAGE FORCE                      2.523E-07   TIME AVG. FORCE       2.523E-07
 LARGEST SCALED RESIDUAL FORCE      2.521E-06   AT NODE       1008   DOF  2
  CORRESPONDING RESIDUAL FORCE      2.521E-06
 LARGEST INCREMENT OF DISP.         5.000E-06   AT NODE       1011   DOF  2
 LARGEST CORRECTION TO DISP.        5.000E-06   AT NODE       1011   DOF  2
          FORCE     EQUILIBRIUM NOT ACHIEVED WITHIN TOLERANCE.
 
	SYMMETRIC DIRECT SPARSE SOLVER RUNNING ON
 	1 HOST:        1 MPI RANK  x 4 THREADS
 	NUMBER OF EQUATIONS:     45
 	NUMBER OF RHS:           1
 	NUMBER OF FLOPS:         2.990e+03

     CHECK POINT  START OF SOLVER     

     CHECK POINT  END OF SOLVER       

       ELAPSED USER TIME (SEC)      =  1.00000E-02
       ELAPSED SYSTEM TIME (SEC)    =   0.0000    
       ELAPSED TOTAL CPU TIME (SEC) =  1.00000E-02
       ELAPSED WALLCLOCK TIME (SEC) =            0

               CONVERGENCE CHECKS FOR EQUILIBRIUM ITERATION     2


 AVERAGE FORCE                      2.112E-07   TIME AVG. FORCE       2.112E-07
 LARGEST SCALED RESIDUAL FORCE      1.923E-06   AT NODE       1008   DOF  2
  CORRESPONDING RESIDUAL FORCE      1.923E-06
 LARGEST INCREMENT OF DISP.         5.000E-06   AT NODE       1011   DOF  2
 LARGEST CORRECTION TO DISP.        4.987E-07   AT NODE       1006   DOF  2
          FORCE     EQUILIBRIUM NOT ACHIEVED WITHIN TOLERANCE.
 
	SYMMETRIC DIRECT SPARSE SOLVER RUNNING ON
 	1 HOST:        1 MPI RANK  x 4 THREADS
 	NUMBER OF EQUATIONS:     45
 	NUMBER OF RHS:           1
 	NUMBER OF FLOPS:         2.990e+03

     CHECK POINT  START OF SOLVER     

     CHECK POINT  END OF SOLVER       

       ELAPSED USER TIME (SEC)      =  1.00000E-02
       ELAPSED SYSTEM TIME (SEC)    =   0.0000    
       ELAPSED TOTAL CPU TIME (SEC) =  1.00000E-02
       ELAPSED WALLCLOCK TIME (SEC) =            0

               CONVERGENCE CHECKS FOR EQUILIBRIUM ITERATION     3


 AVERAGE FORCE                      1.831E-07   TIME AVG. FORCE       1.831E-07
 LARGEST SCALED RESIDUAL FORCE      1.505E-06   AT NODE       1008   DOF  2
  CORRESPONDING RESIDUAL FORCE      1.505E-06
 LARGEST INCREMENT OF DISP.         5.000E-06   AT NODE       1011   DOF  2
 LARGEST CORRECTION TO DISP.        3.964E-07   AT NODE       1006   DOF  2
          FORCE     EQUILIBRIUM NOT ACHIEVED WITHIN TOLERANCE.
 
	SYMMETRIC DIRECT SPARSE SOLVER RUNNING ON
 	1 HOST:        1 MPI RANK  x 4 THREADS
 	NUMBER OF EQUATIONS:     45
 	NUMBER OF RHS:           1
 	NUMBER OF FLOPS:         2.990e+03

     CHECK POINT  START OF SOLVER     

     CHECK POINT  END OF SOLVER       

       ELAPSED USER TIME (SEC)      =   0.0000    
       ELAPSED SYSTEM TIME (SEC)    =   0.0000    
       ELAPSED TOTAL CPU TIME (SEC) =   0.0000    
       ELAPSED WALLCLOCK TIME (SEC) =            0

               CONVERGENCE CHECKS FOR EQUILIBRIUM ITERATION     4


 AVERAGE FORCE                      1.634E-07   TIME AVG. FORCE       1.634E-07
 LARGEST SCALED RESIDUAL FORCE      1.212E-06   AT NODE       1008   DOF  2
  CORRESPONDING RESIDUAL FORCE      1.212E-06
 LARGEST INCREMENT OF DISP.         5.000E-06   AT NODE       1011   DOF  2
 LARGEST CORRECTION TO DISP.        3.194E-07   AT NODE       1006   DOF  2
          FORCE     EQUILIBRIUM NOT ACHIEVED WITHIN TOLERANCE.
 
	SYMMETRIC DIRECT SPARSE SOLVER RUNNING ON
 	1 HOST:        1 MPI RANK  x 4 THREADS
 	NUMBER OF EQUATIONS:     45
 	NUMBER OF RHS:           1
 	NUMBER OF FLOPS:         2.990e+03

     CHECK POINT  START OF SOLVER     

     CHECK POINT  END OF SOLVER       

       ELAPSED USER TIME (SEC)      =   0.0000    
       ELAPSED SYSTEM TIME (SEC)    =   0.0000    
       ELAPSED TOTAL CPU TIME (SEC) =   0.0000    
       ELAPSED WALLCLOCK TIME (SEC) =            0

               CONVERGENCE CHECKS FOR EQUILIBRIUM ITERATION     5


 AVERAGE FORCE                      1.490E-07   TIME AVG. FORCE       1.490E-07
 LARGEST SCALED RESIDUAL FORCE      1.002E-06   AT NODE       1008   DOF  2
  CORRESPONDING RESIDUAL FORCE      1.002E-06
 LARGEST INCREMENT OF DISP.         5.000E-06   AT NODE       1011   DOF  2
 LARGEST CORRECTION TO DISP.        2.602E-07   AT NODE       1006   DOF  2
          FORCE     EQUILIBRIUM NOT ACHIEVED WITHIN TOLERANCE.
 
	SYMMETRIC DIRECT SPARSE SOLVER RUNNING ON
 	1 HOST:        1 MPI RANK  x 4 THREADS
 	NUMBER OF EQUATIONS:     45
 	NUMBER OF RHS:           1
 	NUMBER OF FLOPS:         2.990e+03

     CHECK POINT  START OF SOLVER     

     CHECK POINT  END OF SOLVER       

       ELAPSED USER TIME (SEC)      =  1.00000E-02
       ELAPSED SYSTEM TIME (SEC)    =   0.0000    
       ELAPSED TOTAL CPU TIME (SEC) =  1.00000E-02
       ELAPSED WALLCLOCK TIME (SEC) =            0

               CONVERGENCE CHECKS FOR EQUILIBRIUM ITERATION     6


 AVERAGE FORCE                      1.387E-07   TIME AVG. FORCE       1.387E-07
 LARGEST SCALED RESIDUAL FORCE      8.481E-07   AT NODE       1008   DOF  2
  CORRESPONDING RESIDUAL FORCE      8.481E-07
 LARGEST INCREMENT OF DISP.         5.000E-06   AT NODE       1011   DOF  2
 LARGEST CORRECTION TO DISP.        2.214E-07   AT NODE       1003   DOF  2
          FORCE     EQUILIBRIUM NOT ACHIEVED WITHIN TOLERANCE.
 
	SYMMETRIC DIRECT SPARSE SOLVER RUNNING ON
 	1 HOST:        1 MPI RANK  x 4 THREADS
 	NUMBER OF EQUATIONS:     45
 	NUMBER OF RHS:           1
 	NUMBER OF FLOPS:         2.990e+03

     CHECK POINT  START OF SOLVER     

     CHECK POINT  END OF SOLVER       

       ELAPSED USER TIME (SEC)      =  1.00000E-02
       ELAPSED SYSTEM TIME (SEC)    =   0.0000    
       ELAPSED TOTAL CPU TIME (SEC) =  1.00000E-02
       ELAPSED WALLCLOCK TIME (SEC) =            0

               CONVERGENCE CHECKS FOR EQUILIBRIUM ITERATION     7


 AVERAGE FORCE                      1.315E-07   TIME AVG. FORCE       1.315E-07
 LARGEST SCALED RESIDUAL FORCE      7.314E-07   AT NODE       1008   DOF  2
  CORRESPONDING RESIDUAL FORCE      7.314E-07
 LARGEST INCREMENT OF DISP.         5.000E-06   AT NODE       1011   DOF  2
 LARGEST CORRECTION TO DISP.        2.082E-07   AT NODE       1003   DOF  2
          FORCE     EQUILIBRIUM NOT ACHIEVED WITHIN TOLERANCE.
 
	SYMMETRIC DIRECT SPARSE SOLVER RUNNING ON
 	1 HOST:        1 MPI RANK  x 4 THREADS
 	NUMBER OF EQUATIONS:     45
 	NUMBER OF RHS:           1
 	NUMBER OF FLOPS:         2.990e+03

     CHECK POINT  START OF SOLVER     

     CHECK POINT  END OF SOLVER       

       ELAPSED USER TIME (SEC)      =   0.0000    
       ELAPSED SYSTEM TIME (SEC)    =  1.00000E-02
       ELAPSED TOTAL CPU TIME (SEC) =  1.00000E-02
       ELAPSED WALLCLOCK TIME (SEC) =            0

               CONVERGENCE CHECKS FOR EQUILIBRIUM ITERATION     8


 AVERAGE FORCE                      1.264E-07   TIME AVG. FORCE       1.264E-07
 LARGEST SCALED RESIDUAL FORCE      6.401E-07   AT NODE       1008   DOF  2
  CORRESPONDING RESIDUAL FORCE      6.401E-07
 LARGEST INCREMENT OF DISP.         5.000E-06   AT NODE       1011   DOF  2
 LARGEST CORRECTION TO DISP.        1.936E-07   AT NODE       1003   DOF  2
          FORCE     EQUILIBRIUM NOT ACHIEVED WITHIN TOLERANCE.
 
	SYMMETRIC DIRECT SPARSE SOLVER RUNNING ON
 	1 HOST:        1 MPI RANK  x 4 THREADS
 	NUMBER OF EQUATIONS:     45
 	NUMBER OF RHS:           1
 	NUMBER OF FLOPS:         2.990e+03

     CHECK POINT  START OF SOLVER     

     CHECK POINT  END OF SOLVER       

       ELAPSED USER TIME (SEC)      =   0.0000    
       ELAPSED SYSTEM TIME (SEC)    =   0.0000    
       ELAPSED TOTAL CPU TIME (SEC) =   0.0000    
       ELAPSED WALLCLOCK TIME (SEC) =            0

               CONVERGENCE CHECKS FOR EQUILIBRIUM ITERATION     9


 AVERAGE FORCE                      1.233E-07   TIME AVG. FORCE       1.233E-07
 LARGEST SCALED RESIDUAL FORCE      5.664E-07   AT NODE       1008   DOF  2
  CORRESPONDING RESIDUAL FORCE      5.664E-07
 LARGEST INCREMENT OF DISP.         5.000E-06   AT NODE       1011   DOF  2
 LARGEST CORRECTION TO DISP.        1.787E-07   AT NODE       1003   DOF  2
          FORCE     EQUILIBRIUM NOT ACHIEVED WITHIN TOLERANCE.
 

 ***NOTE: THE RATE OF CONVERGENCE IS VERY SLOW. CONVERGENCE IS JUDGED UNLIKELY.


  INCREMENT     1 STARTS. ATTEMPT NUMBER  2, TIME INCREMENT  0.250    
 
	SYMMETRIC DIRECT SPARSE SOLVER RUNNING ON
 	1 HOST:        1 MPI RANK  x 4 THREADS
 	NUMBER OF EQUATIONS:     45
 	NUMBER OF RHS:           1
 	NUMBER OF FLOPS:         2.990e+03

     CHECK POINT  START OF SOLVER     

     CHECK POINT  END OF SOLVER       

       ELAPSED USER TIME (SEC)      =  1.00000E-02
       ELAPSED SYSTEM TIME (SEC)    =   0.0000    
       ELAPSED TOTAL CPU TIME (SEC) =  1.00000E-02
       ELAPSED WALLCLOCK TIME (SEC) =            0

               CONVERGENCE CHECKS FOR EQUILIBRIUM ITERATION     1


 AVERAGE FORCE                      1.261E-07   TIME AVG. FORCE       1.261E-07
 LARGEST SCALED RESIDUAL FORCE      1.260E-06   AT NODE       1008   DOF  2
  CORRESPONDING RESIDUAL FORCE      1.260E-06
 LARGEST INCREMENT OF DISP.         2.500E-06   AT NODE       1011   DOF  2
 LARGEST CORRECTION TO DISP.        2.500E-06   AT NODE       1011   DOF  2
          FORCE     EQUILIBRIUM NOT ACHIEVED WITHIN TOLERANCE.
 
	SYMMETRIC DIRECT SPARSE SOLVER RUNNING ON
 	1 HOST:        1 MPI RANK  x 4 THREADS
 	NUMBER OF EQUATIONS:     45
 	NUMBER OF RHS:           1
 	NUMBER OF FLOPS:         2.990e+03

     CHECK POINT  START OF SOLVER     

     CHECK POINT  END OF SOLVER       

       ELAPSED USER TIME (SEC)      =  1.00000E-02
       ELAPSED SYSTEM TIME (SEC)    =   0.0000    
       ELAPSED TOTAL CPU TIME (SEC) =  1.00000E-02
       ELAPSED WALLCLOCK TIME (SEC) =            0

               CONVERGENCE CHECKS FOR EQUILIBRIUM ITERATION     2


 AVERAGE FORCE                      1.056E-07   TIME AVG. FORCE       1.056E-07
 LARGEST SCALED RESIDUAL FORCE      9.614E-07   AT NODE       1008   DOF  2
  CORRESPONDING RESIDUAL FORCE      9.614E-07
 LARGEST INCREMENT OF DISP.         2.500E-06   AT NODE       1011   DOF  2
 LARGEST CORRECTION TO DISP.        2.494E-07   AT NODE       1006   DOF  2
          FORCE     EQUILIBRIUM NOT ACHIEVED WITHIN TOLERANCE.
 
	SYMMETRIC DIRECT SPARSE SOLVER RUNNING ON
 	1 HOST:        1 MPI RANK  x 4 THREADS
 	NUMBER OF EQUATIONS:     45
 	NUMBER OF RHS:           1
 	NUMBER OF FLOPS:         2.990e+03

     CHECK POINT  START OF SOLVER     

     CHECK POINT  END OF SOLVER       

       ELAPSED USER TIME (SEC)      =   0.0000    
       ELAPSED SYSTEM TIME (SEC)    =   0.0000    
       ELAPSED TOTAL CPU TIME (SEC) =   0.0000    
       ELAPSED WALLCLOCK TIME (SEC) =            0

               CONVERGENCE CHECKS FOR EQUILIBRIUM ITERATION     3


 AVERAGE FORCE                      9.155E-08   TIME AVG. FORCE       1.000E-02
 LARGEST SCALED RESIDUAL FORCE      7.527E-07   AT NODE       1008   DOF  2
  CORRESPONDING RESIDUAL FORCE      7.527E-07
 LARGEST INCREMENT OF DISP.         2.500E-06   AT NODE       1011   DOF  2
 LARGEST CORRECTION TO DISP.        1.982E-07   AT NODE       1006   DOF  2
          THE FORCE     IS ZERO EVERYWHERE BUT THE FORCE     RESIDUAL OR
          THE DISP.    CORRECTION IS NON-ZERO
 
	SYMMETRIC DIRECT SPARSE SOLVER RUNNING ON
 	1 HOST:        1 MPI RANK  x 4 THREADS
 	NUMBER OF EQUATIONS:     45
 	NUMBER OF RHS:           1
 	NUMBER OF FLOPS:         2.990e+03

     CHECK POINT  START OF SOLVER     

     CHECK POINT  END OF SOLVER       

       ELAPSED USER TIME (SEC)      =  1.00000E-02
       ELAPSED SYSTEM TIME (SEC)    =   0.0000    
       ELAPSED TOTAL CPU TIME (SEC) =  1.00000E-02
       ELAPSED WALLCLOCK TIME (SEC) =            0

               CONVERGENCE CHECKS FOR EQUILIBRIUM ITERATION     4


 AVERAGE FORCE                      8.170E-08   TIME AVG. FORCE       1.000E-02
 LARGEST SCALED RESIDUAL FORCE      6.060E-07   AT NODE       1008   DOF  2
  CORRESPONDING RESIDUAL FORCE      6.060E-07
 LARGEST INCREMENT OF DISP.         2.500E-06   AT NODE       1011   DOF  2
 LARGEST CORRECTION TO DISP.        1.597E-07   AT NODE       1006   DOF  2
          THE FORCE     IS ZERO EVERYWHERE BUT THE FORCE     RESIDUAL OR
          THE DISP.    CORRECTION IS NON-ZERO
 
	SYMMETRIC DIRECT SPARSE SOLVER RUNNING ON
 	1 HOST:        1 MPI RANK  x 4 THREADS
 	NUMBER OF EQUATIONS:     45
 	NUMBER OF RHS:           1
 	NUMBER OF FLOPS:         2.990e+03

     CHECK POINT  START OF SOLVER     

     CHECK POINT  END OF SOLVER       

       ELAPSED USER TIME (SEC)      =   0.0000    
       ELAPSED SYSTEM TIME (SEC)    =   0.0000    
       ELAPSED TOTAL CPU TIME (SEC) =   0.0000    
       ELAPSED WALLCLOCK TIME (SEC) =            0

               CONVERGENCE CHECKS FOR EQUILIBRIUM ITERATION     5


 AVERAGE FORCE                      7.450E-08   TIME AVG. FORCE       1.000E-02
 LARGEST SCALED RESIDUAL FORCE      5.011E-07   AT NODE       1008   DOF  2
  CORRESPONDING RESIDUAL FORCE      5.011E-07
 LARGEST INCREMENT OF DISP.         2.500E-06   AT NODE       1011   DOF  2
 LARGEST CORRECTION TO DISP.        1.301E-07   AT NODE       1006   DOF  2
          THE FORCE     IS ZERO EVERYWHERE BUT THE FORCE     RESIDUAL OR
          THE DISP.    CORRECTION IS NON-ZERO
 
	SYMMETRIC DIRECT SPARSE SOLVER RUNNING ON
 	1 HOST:        1 MPI RANK  x 4 THREADS
 	NUMBER OF EQUATIONS:     45
 	NUMBER OF RHS:           1
 	NUMBER OF FLOPS:         2.990e+03

     CHECK POINT  START OF SOLVER     

     CHECK POINT  END OF SOLVER       

       ELAPSED USER TIME (SEC)      =   0.0000    
       ELAPSED SYSTEM TIME (SEC)    =  1.00000E-02
       ELAPSED TOTAL CPU TIME (SEC) =  1.00000E-02
       ELAPSED WALLCLOCK TIME (SEC) =            0

               CONVERGENCE CHECKS FOR EQUILIBRIUM ITERATION     6


 AVERAGE FORCE                      6.936E-08   TIME AVG. FORCE       1.000E-02
 LARGEST SCALED RESIDUAL FORCE      4.240E-07   AT NODE       1008   DOF  2
  CORRESPONDING RESIDUAL FORCE      4.240E-07
 LARGEST INCREMENT OF DISP.         2.500E-06   AT NODE       1011   DOF  2
 LARGEST CORRECTION TO DISP.        1.107E-07   AT NODE       1003   DOF  2
          THE FORCE     IS ZERO EVERYWHERE BUT THE FORCE     RESIDUAL OR
          THE DISP.    CORRECTION IS NON-ZERO
 
	SYMMETRIC DIRECT SPARSE SOLVER RUNNING ON
 	1 HOST:        1 MPI RANK  x 4 THREADS
 	NUMBER OF EQUATIONS:     45
 	NUMBER OF RHS:           1
 	NUMBER OF FLOPS:         2.990e+03

     CHECK POINT  START OF SOLVER     

     CHECK POINT  END OF SOLVER       

       ELAPSED USER TIME (SEC)      =  1.00000E-02
       ELAPSED SYSTEM TIME (SEC)    =   0.0000    
       ELAPSED TOTAL CPU TIME (SEC) =  1.00000E-02
       ELAPSED WALLCLOCK TIME (SEC) =            0

               CONVERGENCE CHECKS FOR EQUILIBRIUM ITERATION     7


 AVERAGE FORCE                      6.573E-08   TIME AVG. FORCE       1.000E-02
 LARGEST SCALED RESIDUAL FORCE      3.657E-07   AT NODE       1008   DOF  2
  CORRESPONDING RESIDUAL FORCE      3.657E-07
 LARGEST INCREMENT OF DISP.         2.500E-06   AT NODE       1011   DOF  2
 LARGEST CORRECTION TO DISP.        1.041E-07   AT NODE       1003   DOF  2
          THE FORCE     IS ZERO EVERYWHERE BUT THE FORCE     RESIDUAL OR
          THE DISP.    CORRECTION IS NON-ZERO
 
	SYMMETRIC DIRECT SPARSE SOLVER RUNNING ON
 	1 HOST:        1 MPI RANK  x 4 THREADS
 	NUMBER OF EQUATIONS:     45
 	NUMBER OF RHS:           1
 	NUMBER OF FLOPS:         2.990e+03

     CHECK POINT  START OF SOLVER     

     CHECK POINT  END OF SOLVER       

       ELAPSED USER TIME (SEC)      =   0.0000    
       ELAPSED SYSTEM TIME (SEC)    =   0.0000    
       ELAPSED TOTAL CPU TIME (SEC) =   0.0000    
       ELAPSED WALLCLOCK TIME (SEC) =            0

               CONVERGENCE CHECKS FOR EQUILIBRIUM ITERATION     8


 AVERAGE FORCE                      6.319E-08   TIME AVG. FORCE       1.000E-02
 LARGEST SCALED RESIDUAL FORCE      3.200E-07   AT NODE       1008   DOF  2
  CORRESPONDING RESIDUAL FORCE      3.200E-07
 LARGEST INCREMENT OF DISP.         2.500E-06   AT NODE       1011   DOF  2
 LARGEST CORRECTION TO DISP.        9.681E-08   AT NODE       1003   DOF  2
          THE FORCE     IS ZERO EVERYWHERE BUT THE FORCE     RESIDUAL OR
          THE DISP.    CORRECTION IS NON-ZERO
 
	SYMMETRIC DIRECT SPARSE SOLVER RUNNING ON
 	1 HOST:        1 MPI RANK  x 4 THREADS
 	NUMBER OF EQUATIONS:     45
 	NUMBER OF RHS:           1
 	NUMBER OF FLOPS:         2.990e+03

     CHECK POINT  START OF SOLVER     

     CHECK POINT  END OF SOLVER       

       ELAPSED USER TIME (SEC)      =   0.0000    
       ELAPSED SYSTEM TIME (SEC)    =   0.0000    
       ELAPSED TOTAL CPU TIME (SEC) =   0.0000    
       ELAPSED WALLCLOCK TIME (SEC) =            0

               CONVERGENCE CHECKS FOR EQUILIBRIUM ITERATION     9


 AVERAGE FORCE                      6.163E-08   TIME AVG. FORCE       1.000E-02
 LARGEST SCALED RESIDUAL FORCE      2.832E-07   AT NODE       1008   DOF  2
  CORRESPONDING RESIDUAL FORCE      2.832E-07
 LARGEST INCREMENT OF DISP.         2.500E-06   AT NODE       1011   DOF  2
 LARGEST CORRECTION TO DISP.        8.937E-08   AT NODE       1003   DOF  2
          THE FORCE     IS ZERO EVERYWHERE BUT THE FORCE     RESIDUAL OR
          THE DISP.    CORRECTION IS NON-ZERO
 
	SYMMETRIC DIRECT SPARSE SOLVER RUNNING ON
 	1 HOST:        1 MPI RANK  x 4 THREADS
 	NUMBER OF EQUATIONS:     45
 	NUMBER OF RHS:           1
 	NUMBER OF FLOPS:         2.990e+03

     CHECK POINT  START OF SOLVER     

     CHECK POINT  END OF SOLVER       

       ELAPSED USER TIME (SEC)      =  1.00000E-02
       ELAPSED SYSTEM TIME (SEC)    =   0.0000    
       ELAPSED TOTAL CPU TIME (SEC) =  1.00000E-02
       ELAPSED WALLCLOCK TIME (SEC) =            0

               CONVERGENCE CHECKS FOR EQUILIBRIUM ITERATION    10


 AVERAGE FORCE                      6.041E-08   TIME AVG. FORCE       1.000E-02
 LARGEST SCALED RESIDUAL FORCE      2.527E-07   AT NODE       1008   DOF  2
  CORRESPONDING RESIDUAL FORCE      2.527E-07
 LARGEST INCREMENT OF DISP.         2.500E-06   AT NODE       1011   DOF  2
 LARGEST CORRECTION TO DISP.        8.208E-08   AT NODE       1003   DOF  2
          THE FORCE     IS ZERO EVERYWHERE BUT THE FORCE     RESIDUAL OR
          THE DISP.    CORRECTION IS NON-ZERO
 
	SYMMETRIC DIRECT SPARSE SOLVER RUNNING ON
 	1 HOST:        1 MPI RANK  x 4 THREADS
 	NUMBER OF EQUATIONS:     45
 	NUMBER OF RHS:           1
 	NUMBER OF FLOPS:         2.990e+03

     CHECK POINT  START OF SOLVER     

     CHECK POINT  END OF SOLVER       

       ELAPSED USER TIME (SEC)      =   0.0000    
       ELAPSED SYSTEM TIME (SEC)    =   0.0000    
       ELAPSED TOTAL CPU TIME (SEC) =   0.0000    
       ELAPSED WALLCLOCK TIME (SEC) =            0

               CONVERGENCE CHECKS FOR EQUILIBRIUM ITERATION    11


 AVERAGE FORCE                      5.943E-08   TIME AVG. FORCE       1.000E-02
 LARGEST SCALED RESIDUAL FORCE      2.268E-07   AT NODE       1008   DOF  2
  CORRESPONDING RESIDUAL FORCE      2.268E-07
 LARGEST INCREMENT OF DISP.         2.500E-06   AT NODE       1011   DOF  2
 LARGEST CORRECTION TO DISP.        7.512E-08   AT NODE       1003   DOF  2
          THE FORCE     IS ZERO EVERYWHERE BUT THE FORCE     RESIDUAL OR
          THE DISP.    CORRECTION IS NON-ZERO
 
	SYMMETRIC DIRECT SPARSE SOLVER RUNNING ON
 	1 HOST:        1 MPI RANK  x 4 THREADS
 	NUMBER OF EQUATIONS:     45
 	NUMBER OF RHS:           1
 	NUMBER OF FLOPS:         2.990e+03

     CHECK POINT  START OF SOLVER     

     CHECK POINT  END OF SOLVER       

       ELAPSED USER TIME (SEC)      =   0.0000    
       ELAPSED SYSTEM TIME (SEC)    =   0.0000    
       ELAPSED TOTAL CPU TIME (SEC) =   0.0000    
       ELAPSED WALLCLOCK TIME (SEC) =            0

               CONVERGENCE CHECKS FOR EQUILIBRIUM ITERATION    12


 AVERAGE FORCE                      5.869E-08   TIME AVG. FORCE       1.000E-02
 LARGEST SCALED RESIDUAL FORCE      2.044E-07   AT NODE       1008   DOF  2
  CORRESPONDING RESIDUAL FORCE      2.044E-07
 LARGEST INCREMENT OF DISP.         2.500E-06   AT NODE       1011   DOF  2
 LARGEST CORRECTION TO DISP.        6.858E-08   AT NODE       1003   DOF  2
          THE FORCE     IS ZERO EVERYWHERE BUT THE FORCE     RESIDUAL OR
          THE DISP.    CORRECTION IS NON-ZERO
 
	SYMMETRIC DIRECT SPARSE SOLVER RUNNING ON
 	1 HOST:        1 MPI RANK  x 4 THREADS
 	NUMBER OF EQUATIONS:     45
 	NUMBER OF RHS:           1
 	NUMBER OF FLOPS:         2.990e+03

     CHECK POINT  START OF SOLVER     

     CHECK POINT  END OF SOLVER       

       ELAPSED USER TIME (SEC)      =   0.0000    
       ELAPSED SYSTEM TIME (SEC)    =   0.0000    
       ELAPSED TOTAL CPU TIME (SEC) =   0.0000    
       ELAPSED WALLCLOCK TIME (SEC) =            0

               CONVERGENCE CHECKS FOR EQUILIBRIUM ITERATION    13


 AVERAGE FORCE                      5.808E-08   TIME AVG. FORCE       1.000E-02
 LARGEST SCALED RESIDUAL FORCE      1.848E-07   AT NODE       1008   DOF  2
  CORRESPONDING RESIDUAL FORCE      1.848E-07
 LARGEST INCREMENT OF DISP.         2.500E-06   AT NODE       1011   DOF  2
 LARGEST CORRECTION TO DISP.        6.250E-08   AT NODE       1003   DOF  2
          THE FORCE     IS ZERO EVERYWHERE BUT THE FORCE     RESIDUAL OR
          THE DISP.    CORRECTION IS NON-ZERO
 
	SYMMETRIC DIRECT SPARSE SOLVER RUNNING ON
 	1 HOST:        1 MPI RANK  x 4 THREADS
 	NUMBER OF EQUATIONS:     45
 	NUMBER OF RHS:           1
 	NUMBER OF FLOPS:         2.990e+03

     CHECK POINT  START OF SOLVER     

     CHECK POINT  END OF SOLVER       

       ELAPSED USER TIME (SEC)      =   0.0000    
       ELAPSED SYSTEM TIME (SEC)    =   0.0000    
       ELAPSED TOTAL CPU TIME (SEC) =   0.0000    
       ELAPSED WALLCLOCK TIME (SEC) =            0

               CONVERGENCE CHECKS FOR EQUILIBRIUM ITERATION    14


 AVERAGE FORCE                      5.757E-08   TIME AVG. FORCE       1.000E-02
 LARGEST SCALED RESIDUAL FORCE      1.675E-07   AT NODE       1008   DOF  2
  CORRESPONDING RESIDUAL FORCE      1.675E-07
 LARGEST INCREMENT OF DISP.         2.500E-06   AT NODE       1011   DOF  2
 LARGEST CORRECTION TO DISP.        5.689E-08   AT NODE       1003   DOF  2
          THE FORCE     IS ZERO EVERYWHERE BUT THE FORCE     RESIDUAL OR
          THE DISP.    CORRECTION IS NON-ZERO
 
	SYMMETRIC DIRECT SPARSE SOLVER RUNNING ON
 	1 HOST:        1 MPI RANK  x 4 THREADS
 	NUMBER OF EQUATIONS:     45
 	NUMBER OF RHS:           1
 	NUMBER OF FLOPS:         2.990e+03

     CHECK POINT  START OF SOLVER     

     CHECK POINT  END OF SOLVER       

       ELAPSED USER TIME (SEC)      =   0.0000    
       ELAPSED SYSTEM TIME (SEC)    =   0.0000    
       ELAPSED TOTAL CPU TIME (SEC) =   0.0000    
       ELAPSED WALLCLOCK TIME (SEC) =            0

               CONVERGENCE CHECKS FOR EQUILIBRIUM ITERATION    15


 AVERAGE FORCE                      5.716E-08   TIME AVG. FORCE       1.000E-02
 LARGEST SCALED RESIDUAL FORCE      1.520E-07   AT NODE       1008   DOF  2
  CORRESPONDING RESIDUAL FORCE      1.520E-07
 LARGEST INCREMENT OF DISP.         2.500E-06   AT NODE       1011   DOF  2
 LARGEST CORRECTION TO DISP.        5.174E-08   AT NODE       1003   DOF  2
          THE FORCE     IS ZERO EVERYWHERE BUT THE FORCE     RESIDUAL OR
          THE DISP.    CORRECTION IS NON-ZERO
 
	SYMMETRIC DIRECT SPARSE SOLVER RUNNING ON
 	1 HOST:        1 MPI RANK  x 4 THREADS
 	NUMBER OF EQUATIONS:     45
 	NUMBER OF RHS:           1
 	NUMBER OF FLOPS:         2.990e+03

     CHECK POINT  START OF SOLVER     

     CHECK POINT  END OF SOLVER       

       ELAPSED USER TIME (SEC)      =   0.0000    
       ELAPSED SYSTEM TIME (SEC)    =   0.0000    
       ELAPSED TOTAL CPU TIME (SEC) =   0.0000    
       ELAPSED WALLCLOCK TIME (SEC) =            0

               CONVERGENCE CHECKS FOR EQUILIBRIUM ITERATION    16


 AVERAGE FORCE                      5.683E-08   TIME AVG. FORCE       1.000E-02
 LARGEST SCALED RESIDUAL FORCE      1.381E-07   AT NODE       1008   DOF  2
  CORRESPONDING RESIDUAL FORCE      1.381E-07
 LARGEST INCREMENT OF DISP.         2.500E-06   AT NODE       1011   DOF  2
 LARGEST CORRECTION TO DISP.        4.703E-08   AT NODE       1003   DOF  2
          THE FORCE     IS ZERO EVERYWHERE BUT THE FORCE     RESIDUAL OR
          THE DISP.    CORRECTION IS NON-ZERO
 

 ***NOTE: THE SOLUTION FAILS TO CONVERGE IN THE MAXIMUM NUMBER OF EQUILIBRIUM 
          ITERATIONS ALLOWED.


  INCREMENT     1 STARTS. ATTEMPT NUMBER  3, TIME INCREMENT  6.250E-02
 
	SYMMETRIC DIRECT SPARSE SOLVER RUNNING ON
 	1 HOST:        1 MPI RANK  x 4 THREADS
 	NUMBER OF EQUATIONS:     45
 	NUMBER OF RHS:           1
 	NUMBER OF FLOPS:         2.990e+03

     CHECK POINT  START OF SOLVER     

     CHECK POINT  END OF SOLVER       

       ELAPSED USER TIME (SEC)      =   0.0000    
       ELAPSED SYSTEM TIME (SEC)    =  1.00000E-02
       ELAPSED TOTAL CPU TIME (SEC) =  1.00000E-02
       ELAPSED WALLCLOCK TIME (SEC) =            0

               CONVERGENCE CHECKS FOR EQUILIBRIUM ITERATION     1


 AVERAGE FORCE                      3.153E-08   TIME AVG. FORCE       1.000E-02
 LARGEST SCALED RESIDUAL FORCE      3.151E-07   AT NODE       1008   DOF  2
  CORRESPONDING RESIDUAL FORCE      3.151E-07
 LARGEST INCREMENT OF DISP.         6.250E-07   AT NODE       1011   DOF  2
 LARGEST CORRECTION TO DISP.        6.250E-07   AT NODE       1011   DOF  2
          THE FORCE     IS ZERO EVERYWHERE BUT THE FORCE     RESIDUAL OR
          THE DISP.    CORRECTION IS NON-ZERO
 
	SYMMETRIC DIRECT SPARSE SOLVER RUNNING ON
 	1 HOST:        1 MPI RANK  x 4 THREADS
 	NUMBER OF EQUATIONS:     45
 	NUMBER OF RHS:           1
 	NUMBER OF FLOPS:         2.990e+03

     CHECK POINT  START OF SOLVER     

     CHECK POINT  END OF SOLVER       

       ELAPSED USER TIME (SEC)      =   0.0000    
       ELAPSED SYSTEM TIME (SEC)    =   0.0000    
       ELAPSED TOTAL CPU TIME (SEC) =   0.0000    
       ELAPSED WALLCLOCK TIME (SEC) =            0

               CONVERGENCE CHECKS FOR EQUILIBRIUM ITERATION     2


 AVERAGE FORCE                      2.641E-08   TIME AVG. FORCE       1.000E-02
 LARGEST SCALED RESIDUAL FORCE      2.404E-07   AT NODE       1008   DOF  2
  CORRESPONDING RESIDUAL FORCE      2.404E-07
 LARGEST INCREMENT OF DISP.         6.250E-07   AT NODE       1011   DOF  2
 LARGEST CORRECTION TO DISP.        6.234E-08   AT NODE       1006   DOF  2
          THE FORCE     IS ZERO EVERYWHERE BUT THE FORCE     RESIDUAL OR
          THE DISP.    CORRECTION IS NON-ZERO
 
	SYMMETRIC DIRECT SPARSE SOLVER RUNNING ON
 	1 HOST:        1 MPI RANK  x 4 THREADS
 	NUMBER OF EQUATIONS:     45
 	NUMBER OF RHS:           1
 	NUMBER OF FLOPS:         2.990e+03

     CHECK POINT  START OF SOLVER     

     CHECK POINT  END OF SOLVER       

       ELAPSED USER TIME (SEC)      =   0.0000    
       ELAPSED SYSTEM TIME (SEC)    =   0.0000    
       ELAPSED TOTAL CPU TIME (SEC) =   0.0000    
       ELAPSED WALLCLOCK TIME (SEC) =            0

               CONVERGENCE CHECKS FOR EQUILIBRIUM ITERATION     3


 AVERAGE FORCE                      2.289E-08   TIME AVG. FORCE       1.000E-02
 LARGEST SCALED RESIDUAL FORCE      1.882E-07   AT NODE       1008   DOF  2
  CORRESPONDING RESIDUAL FORCE      1.882E-07
 LARGEST INCREMENT OF DISP.         6.250E-07   AT NODE       1011   DOF  2
 LARGEST CORRECTION TO DISP.        4.955E-08   AT NODE       1006   DOF  2
          THE FORCE     IS ZERO EVERYWHERE BUT THE FORCE     RESIDUAL OR
          THE DISP.    CORRECTION IS NON-ZERO
 
	SYMMETRIC DIRECT SPARSE SOLVER RUNNING ON
 	1 HOST:        1 MPI RANK  x 4 THREADS
 	NUMBER OF EQUATIONS:     45
 	NUMBER OF RHS:           1
 	NUMBER OF FLOPS:         2.990e+03

     CHECK POINT  START OF SOLVER     

     CHECK POINT  END OF SOLVER       

       ELAPSED USER TIME (SEC)      =   0.0000    
       ELAPSED SYSTEM TIME (SEC)    =   0.0000    
       ELAPSED TOTAL CPU TIME (SEC) =   0.0000    
       ELAPSED WALLCLOCK TIME (SEC) =            0

               CONVERGENCE CHECKS FOR EQUILIBRIUM ITERATION     4


 AVERAGE FORCE                      2.043E-08   TIME AVG. FORCE       1.000E-02
 LARGEST SCALED RESIDUAL FORCE      1.515E-07   AT NODE       1008   DOF  2
  CORRESPONDING RESIDUAL FORCE      1.515E-07
 LARGEST INCREMENT OF DISP.         6.250E-07   AT NODE       1011   DOF  2
 LARGEST CORRECTION TO DISP.        3.992E-08   AT NODE       1006   DOF  2
          THE FORCE     IS ZERO EVERYWHERE BUT THE FORCE     RESIDUAL OR
          THE DISP.    CORRECTION IS NON-ZERO
 
	SYMMETRIC DIRECT SPARSE SOLVER RUNNING ON
 	1 HOST:        1 MPI RANK  x 4 THREADS
 	NUMBER OF EQUATIONS:     45
 	NUMBER OF RHS:           1
 	NUMBER OF FLOPS:         2.990e+03

     CHECK POINT  START OF SOLVER     

     CHECK POINT  END OF SOLVER       

       ELAPSED USER TIME (SEC)      =  1.00000E-02
       ELAPSED SYSTEM TIME (SEC)    =   0.0000    
       ELAPSED TOTAL CPU TIME (SEC) =  1.00000E-02
       ELAPSED WALLCLOCK TIME (SEC) =            0

               CONVERGENCE CHECKS FOR EQUILIBRIUM ITERATION     5


 AVERAGE FORCE                      1.862E-08   TIME AVG. FORCE       1.000E-02
 LARGEST SCALED RESIDUAL FORCE      1.253E-07   AT NODE       1008   DOF  2
  CORRESPONDING RESIDUAL FORCE      1.253E-07
 LARGEST INCREMENT OF DISP.         6.250E-07   AT NODE       1011   DOF  2
 LARGEST CORRECTION TO DISP.        3.253E-08   AT NODE       1006   DOF  2
          THE FORCE     IS ZERO EVERYWHERE BUT THE FORCE     RESIDUAL OR
          THE DISP.    CORRECTION IS NON-ZERO
 
	SYMMETRIC DIRECT SPARSE SOLVER RUNNING ON
 	1 HOST:        1 MPI RANK  x 4 THREADS
 	NUMBER OF EQUATIONS:     45
 	NUMBER OF RHS:           1
 	NUMBER OF FLOPS:         2.990e+03

     CHECK POINT  START OF SOLVER     

     CHECK POINT  END OF SOLVER       

       ELAPSED USER TIME (SEC)      =   0.0000    
       ELAPSED SYSTEM TIME (SEC)    =   0.0000    
       ELAPSED TOTAL CPU TIME (SEC) =   0.0000    
       ELAPSED WALLCLOCK TIME (SEC) =            0

               CONVERGENCE CHECKS FOR EQUILIBRIUM ITERATION     6


 AVERAGE FORCE                      1.734E-08   TIME AVG. FORCE       1.000E-02
 LARGEST SCALED RESIDUAL FORCE      1.060E-07   AT NODE       1008   DOF  2
  CORRESPONDING RESIDUAL FORCE      1.060E-07
 LARGEST INCREMENT OF DISP.         6.250E-07   AT NODE       1011   DOF  2
 LARGEST CORRECTION TO DISP.        2.768E-08   AT NODE       1003   DOF  2
          THE FORCE     IS ZERO EVERYWHERE BUT THE FORCE     RESIDUAL OR
          THE DISP.    CORRECTION IS NON-ZERO
 
	SYMMETRIC DIRECT SPARSE SOLVER RUNNING ON
 	1 HOST:        1 MPI RANK  x 4 THREADS
 	NUMBER OF EQUATIONS:     45
 	NUMBER OF RHS:           1
 	NUMBER OF FLOPS:         2.990e+03

     CHECK POINT  START OF SOLVER     

     CHECK POINT  END OF SOLVER       

       ELAPSED USER TIME (SEC)      =   0.0000    
       ELAPSED SYSTEM TIME (SEC)    =   0.0000    
       ELAPSED TOTAL CPU TIME (SEC) =   0.0000    
       ELAPSED WALLCLOCK TIME (SEC) =            0

               CONVERGENCE CHECKS FOR EQUILIBRIUM ITERATION     7


 AVERAGE FORCE                      1.643E-08   TIME AVG. FORCE       1.000E-02
 LARGEST SCALED RESIDUAL FORCE      9.142E-08   AT NODE       1008   DOF  2
  CORRESPONDING RESIDUAL FORCE      9.142E-08
 LARGEST INCREMENT OF DISP.         6.250E-07   AT NODE       1011   DOF  2
 LARGEST CORRECTION TO DISP.        2.603E-08   AT NODE       1003   DOF  2
          THERE IS ZERO FORCE     EVERYWHERE
 

 ***WARNING: THERE IS ZERO FORCE EVERYWHERE IN THE MODEL BASED ON THE DEFAULT 
             CRITERION. PLEASE CHECK THE VALUE OF THE AVERAGE FORCE DURING THE 
             CURRENT ITERATION TO VERIFY THAT THE FORCE IS SMALL ENOUGH TO BE 
             TREATED AS ZERO. IF NOT, PLEASE USE THE SOLUTION CONTROLS TO RESET 
             THE CRITERION FOR ZERO FORCE.

 ITERATION SUMMARY FOR THE INCREMENT:   7 TOTAL ITERATIONS, OF WHICH
   0 ARE SEVERE DISCONTINUITY ITERATIONS AND  7 ARE EQUILIBRIUM ITERATIONS.

 TIME INCREMENT COMPLETED  6.250E-02,  FRACTION OF STEP COMPLETED  6.250E-02
 STEP TIME COMPLETED       6.250E-02,  TOTAL TIME COMPLETED         2.06    


  INCREMENT     2 STARTS. ATTEMPT NUMBER  1, TIME INCREMENT  6.250E-02
 
	SYMMETRIC DIRECT SPARSE SOLVER RUNNING ON
 	1 HOST:        1 MPI RANK  x 4 THREADS
 	NUMBER OF EQUATIONS:     45
 	NUMBER OF RHS:           1
 	NUMBER OF FLOPS:         2.990e+03

     CHECK POINT  START OF SOLVER     

     CHECK POINT  END OF SOLVER       

       ELAPSED USER TIME (SEC)      =   0.0000    
       ELAPSED SYSTEM TIME (SEC)    =   0.0000    
       ELAPSED TOTAL CPU TIME (SEC) =   0.0000    
       ELAPSED WALLCLOCK TIME (SEC) =            0

               CONVERGENCE CHECKS FOR EQUILIBRIUM ITERATION     1


 AVERAGE FORCE                      1.580E-08   TIME AVG. FORCE       1.000E-02
 LARGEST SCALED RESIDUAL FORCE      8.001E-08   AT NODE       1008   DOF  2
  CORRESPONDING RESIDUAL FORCE      8.001E-08
 LARGEST INCREMENT OF DISP.         6.250E-07   AT NODE       1011   DOF  2
 LARGEST CORRECTION TO DISP.        2.420E-08   AT NODE       1003   DOF  2
          THERE IS ZERO FORCE     EVERYWHERE
 

 ***WARNING: THERE IS ZERO FORCE EVERYWHERE IN THE MODEL BASED ON THE DEFAULT 
             CRITERION. PLEASE CHECK THE VALUE OF THE AVERAGE FORCE DURING THE 
             CURRENT ITERATION TO VERIFY THAT THE FORCE IS SMALL ENOUGH TO BE 
             TREATED AS ZERO. IF NOT, PLEASE USE THE SOLUTION CONTROLS TO RESET 
             THE CRITERION FOR ZERO FORCE.

 ITERATION SUMMARY FOR THE INCREMENT:   1 TOTAL ITERATIONS, OF WHICH
   0 ARE SEVERE DISCONTINUITY ITERATIONS AND  1 ARE EQUILIBRIUM ITERATIONS.

 TIME INCREMENT COMPLETED  6.250E-02,  FRACTION OF STEP COMPLETED  0.125    
 STEP TIME COMPLETED       0.125    ,  TOTAL TIME COMPLETED         2.12    


  INCREMENT     3 STARTS. ATTEMPT NUMBER  1, TIME INCREMENT  6.250E-02
 
	SYMMETRIC DIRECT SPARSE SOLVER RUNNING ON
 	1 HOST:        1 MPI RANK  x 4 THREADS
 	NUMBER OF EQUATIONS:     45
 	NUMBER OF RHS:           1
 	NUMBER OF FLOPS:         2.990e+03

     CHECK POINT  START OF SOLVER     

     CHECK POINT  END OF SOLVER       

       ELAPSED USER TIME (SEC)      =  1.00000E-02
       ELAPSED SYSTEM TIME (SEC)    =   0.0000    
       ELAPSED TOTAL CPU TIME (SEC) =  1.00000E-02
       ELAPSED WALLCLOCK TIME (SEC) =            0

               CONVERGENCE CHECKS FOR EQUILIBRIUM ITERATION     1


 AVERAGE FORCE                      1.541E-08   TIME AVG. FORCE       1.000E-02
 LARGEST SCALED RESIDUAL FORCE      7.080E-08   AT NODE       1008   DOF  2
  CORRESPONDING RESIDUAL FORCE      7.080E-08
 LARGEST INCREMENT OF DISP.         6.250E-07   AT NODE       1011   DOF  2
 LARGEST CORRECTION TO DISP.        2.234E-08   AT NODE       1003   DOF  2
          THERE IS ZERO FORCE     EVERYWHERE
 

 ***WARNING: THERE IS ZERO FORCE EVERYWHERE IN THE MODEL BASED ON THE DEFAULT 
             CRITERION. PLEASE CHECK THE VALUE OF THE AVERAGE FORCE DURING THE 
             CURRENT ITERATION TO VERIFY THAT THE FORCE IS SMALL ENOUGH TO BE 
             TREATED AS ZERO. IF NOT, PLEASE USE THE SOLUTION CONTROLS TO RESET 
             THE CRITERION FOR ZERO FORCE.
          TIME INCREMENT MAY NOW INCREASE TO    9.375E-02

 ITERATION SUMMARY FOR THE INCREMENT:   1 TOTAL ITERATIONS, OF WHICH
   0 ARE SEVERE DISCONTINUITY ITERATIONS AND  1 ARE EQUILIBRIUM ITERATIONS.

 TIME INCREMENT COMPLETED  6.250E-02,  FRACTION OF STEP COMPLETED  0.188    
 STEP TIME COMPLETED       0.188    ,  TOTAL TIME COMPLETED         2.19    


  INCREMENT     4 STARTS. ATTEMPT NUMBER  1, TIME INCREMENT  9.375E-02
 
	SYMMETRIC DIRECT SPARSE SOLVER RUNNING ON
 	1 HOST:        1 MPI RANK  x 4 THREADS
 	NUMBER OF EQUATIONS:     45
 	NUMBER OF RHS:           1
 	NUMBER OF FLOPS:         2.990e+03

     CHECK POINT  START OF SOLVER     

     CHECK POINT  END OF SOLVER       

       ELAPSED USER TIME (SEC)      =   0.0000    
       ELAPSED SYSTEM TIME (SEC)    =   0.0000    
       ELAPSED TOTAL CPU TIME (SEC) =   0.0000    
       ELAPSED WALLCLOCK TIME (SEC) =            0

               CONVERGENCE CHECKS FOR EQUILIBRIUM ITERATION     1


 AVERAGE FORCE                      2.265E-08   TIME AVG. FORCE       1.000E-02
 LARGEST SCALED RESIDUAL FORCE      9.476E-08   AT NODE       1008   DOF  2
  CORRESPONDING RESIDUAL FORCE      9.476E-08
 LARGEST INCREMENT OF DISP.         9.375E-07   AT NODE       1011   DOF  2
 LARGEST CORRECTION TO DISP.        3.078E-08   AT NODE       1003   DOF  2
          THERE IS ZERO FORCE     EVERYWHERE
 

 ***WARNING: THERE IS ZERO FORCE EVERYWHERE IN THE MODEL BASED ON THE DEFAULT 
             CRITERION. PLEASE CHECK THE VALUE OF THE AVERAGE FORCE DURING THE 
             CURRENT ITERATION TO VERIFY THAT THE FORCE IS SMALL ENOUGH TO BE 
             TREATED AS ZERO. IF NOT, PLEASE USE THE SOLUTION CONTROLS TO RESET 
             THE CRITERION FOR ZERO FORCE.
          TIME INCREMENT MAY NOW INCREASE TO    0.141    

 ITERATION SUMMARY FOR THE INCREMENT:   1 TOTAL ITERATIONS, OF WHICH
   0 ARE SEVERE DISCONTINUITY ITERATIONS AND  1 ARE EQUILIBRIUM ITERATIONS.

 TIME INCREMENT COMPLETED  9.375E-02,  FRACTION OF STEP COMPLETED  0.281    
 STEP TIME COMPLETED       0.281    ,  TOTAL TIME COMPLETED         2.28    


  INCREMENT     5 STARTS. ATTEMPT NUMBER  1, TIME INCREMENT  0.141    
 
	SYMMETRIC DIRECT SPARSE SOLVER RUNNING ON
 	1 HOST:        1 MPI RANK  x 4 THREADS
 	NUMBER OF EQUATIONS:     45
 	NUMBER OF RHS:           1
 	NUMBER OF FLOPS:         2.990e+03

     CHECK POINT  START OF SOLVER     

     CHECK POINT  END OF SOLVER       

       ELAPSED USER TIME (SEC)      =   0.0000    
       ELAPSED SYSTEM TIME (SEC)    =   0.0000    
       ELAPSED TOTAL CPU TIME (SEC) =   0.0000    
       ELAPSED WALLCLOCK TIME (SEC) =            0

               CONVERGENCE CHECKS FOR EQUILIBRIUM ITERATION     1


 AVERAGE FORCE                      3.343E-08   TIME AVG. FORCE       1.000E-02
 LARGEST SCALED RESIDUAL FORCE      1.276E-07   AT NODE       1008   DOF  2
  CORRESPONDING RESIDUAL FORCE      1.276E-07
 LARGEST INCREMENT OF DISP.         1.406E-06   AT NODE       1011   DOF  2
 LARGEST CORRECTION TO DISP.        4.225E-08   AT NODE       1003   DOF  2
          THE FORCE     IS ZERO EVERYWHERE BUT THE FORCE     RESIDUAL OR
          THE DISP.    CORRECTION IS NON-ZERO
 
	SYMMETRIC DIRECT SPARSE SOLVER RUNNING ON
 	1 HOST:        1 MPI RANK  x 4 THREADS
 	NUMBER OF EQUATIONS:     45
 	NUMBER OF RHS:           1
 	NUMBER OF FLOPS:         2.990e+03

     CHECK POINT  START OF SOLVER     

     CHECK POINT  END OF SOLVER       

       ELAPSED USER TIME (SEC)      =  1.00000E-02
       ELAPSED SYSTEM TIME (SEC)    =   0.0000    
       ELAPSED TOTAL CPU TIME (SEC) =  1.00000E-02
       ELAPSED WALLCLOCK TIME (SEC) =            0

               CONVERGENCE CHECKS FOR EQUILIBRIUM ITERATION     2


 AVERAGE FORCE                      3.301E-08   TIME AVG. FORCE       1.000E-02
 LARGEST SCALED RESIDUAL FORCE      1.150E-07   AT NODE       1008   DOF  2
  CORRESPONDING RESIDUAL FORCE      1.150E-07
 LARGEST INCREMENT OF DISP.         1.406E-06   AT NODE       1011   DOF  2
 LARGEST CORRECTION TO DISP.        3.857E-08   AT NODE       1003   DOF  2
          THE FORCE     IS ZERO EVERYWHERE BUT THE FORCE     RESIDUAL OR
          THE DISP.    CORRECTION IS NON-ZERO
 
	SYMMETRIC DIRECT SPARSE SOLVER RUNNING ON
 	1 HOST:        1 MPI RANK  x 4 THREADS
 	NUMBER OF EQUATIONS:     45
 	NUMBER OF RHS:           1
 	NUMBER OF FLOPS:         2.990e+03

     CHECK POINT  START OF SOLVER     

     CHECK POINT  END OF SOLVER       

       ELAPSED USER TIME (SEC)      =  1.00000E-02
       ELAPSED SYSTEM TIME (SEC)    =   0.0000    
       ELAPSED TOTAL CPU TIME (SEC) =  1.00000E-02
       ELAPSED WALLCLOCK TIME (SEC) =            0

               CONVERGENCE CHECKS FOR EQUILIBRIUM ITERATION     3


 AVERAGE FORCE                      3.267E-08   TIME AVG. FORCE       1.000E-02
 LARGEST SCALED RESIDUAL FORCE      1.040E-07   AT NODE       1008   DOF  2
  CORRESPONDING RESIDUAL FORCE      1.040E-07
 LARGEST INCREMENT OF DISP.         1.406E-06   AT NODE       1011   DOF  2
 LARGEST CORRECTION TO DISP.        3.515E-08   AT NODE       1003   DOF  2
          THE FORCE     IS ZERO EVERYWHERE BUT THE FORCE     RESIDUAL OR
          THE DISP.    CORRECTION IS NON-ZERO
 
	SYMMETRIC DIRECT SPARSE SOLVER RUNNING ON
 	1 HOST:        1 MPI RANK  x 4 THREADS
 	NUMBER OF EQUATIONS:     45
 	NUMBER OF RHS:           1
 	NUMBER OF FLOPS:         2.990e+03

     CHECK POINT  START OF SOLVER     

     CHECK POINT  END OF SOLVER       

       ELAPSED USER TIME (SEC)      =   0.0000    
       ELAPSED SYSTEM TIME (SEC)    =   0.0000    
       ELAPSED TOTAL CPU TIME (SEC) =   0.0000    
       ELAPSED WALLCLOCK TIME (SEC) =            0

               CONVERGENCE CHECKS FOR EQUILIBRIUM ITERATION     4


 AVERAGE FORCE                      3.238E-08   TIME AVG. FORCE       1.000E-02
 LARGEST SCALED RESIDUAL FORCE      9.420E-08   AT NODE       1008   DOF  2
  CORRESPONDING RESIDUAL FORCE      9.420E-08
 LARGEST INCREMENT OF DISP.         1.406E-06   AT NODE       1011   DOF  2
 LARGEST CORRECTION TO DISP.        3.200E-08   AT NODE       1003   DOF  2
          THERE IS ZERO FORCE     EVERYWHERE
 

 ***WARNING: THERE IS ZERO FORCE EVERYWHERE IN THE MODEL BASED ON THE DEFAULT 
             CRITERION. PLEASE CHECK THE VALUE OF THE AVERAGE FORCE DURING THE 
             CURRENT ITERATION TO VERIFY THAT THE FORCE IS SMALL ENOUGH TO BE 
             TREATED AS ZERO. IF NOT, PLEASE USE THE SOLUTION CONTROLS TO RESET 
             THE CRITERION FOR ZERO FORCE.
          TIME INCREMENT MAY NOW INCREASE TO    0.211    

 ITERATION SUMMARY FOR THE INCREMENT:   4 TOTAL ITERATIONS, OF WHICH
   0 ARE SEVERE DISCONTINUITY ITERATIONS AND  4 ARE EQUILIBRIUM ITERATIONS.

 TIME INCREMENT COMPLETED  0.141    ,  FRACTION OF STEP COMPLETED  0.422    
 STEP TIME COMPLETED       0.422    ,  TOTAL TIME COMPLETED         2.42    


  INCREMENT     6 STARTS. ATTEMPT NUMBER  1, TIME INCREMENT  0.211    
 
	SYMMETRIC DIRECT SPARSE SOLVER RUNNING ON
 	1 HOST:        1 MPI RANK  x 4 THREADS
 	NUMBER OF EQUATIONS:     45
 	NUMBER OF RHS:           1
 	NUMBER OF FLOPS:         2.990e+03

     CHECK POINT  START OF SOLVER     

     CHECK POINT  END OF SOLVER       

       ELAPSED USER TIME (SEC)      =   0.0000    
       ELAPSED SYSTEM TIME (SEC)    =   0.0000    
       ELAPSED TOTAL CPU TIME (SEC) =   0.0000    
       ELAPSED WALLCLOCK TIME (SEC) =            0

               CONVERGENCE CHECKS FOR EQUILIBRIUM ITERATION     1


 AVERAGE FORCE                      4.823E-08   TIME AVG. FORCE       1.000E-02
 LARGEST SCALED RESIDUAL FORCE      1.282E-07   AT NODE       1008   DOF  2
  CORRESPONDING RESIDUAL FORCE      1.282E-07
 LARGEST INCREMENT OF DISP.         2.109E-06   AT NODE       1011   DOF  2
 LARGEST CORRECTION TO DISP.        4.365E-08   AT NODE       1003   DOF  2
          THE FORCE     IS ZERO EVERYWHERE BUT THE FORCE     RESIDUAL OR
          THE DISP.    CORRECTION IS NON-ZERO
 
	SYMMETRIC DIRECT SPARSE SOLVER RUNNING ON
 	1 HOST:        1 MPI RANK  x 4 THREADS
 	NUMBER OF EQUATIONS:     45
 	NUMBER OF RHS:           1
 	NUMBER OF FLOPS:         2.990e+03

     CHECK POINT  START OF SOLVER     

     CHECK POINT  END OF SOLVER       

       ELAPSED USER TIME (SEC)      =  1.00000E-02
       ELAPSED SYSTEM TIME (SEC)    =   0.0000    
       ELAPSED TOTAL CPU TIME (SEC) =  1.00000E-02
       ELAPSED WALLCLOCK TIME (SEC) =            0

               CONVERGENCE CHECKS FOR EQUILIBRIUM ITERATION     2


 AVERAGE FORCE                      4.795E-08   TIME AVG. FORCE       1.000E-02
 LARGEST SCALED RESIDUAL FORCE      1.165E-07   AT NODE       1008   DOF  2
  CORRESPONDING RESIDUAL FORCE      1.165E-07
 LARGEST INCREMENT OF DISP.         2.109E-06   AT NODE       1011   DOF  2
 LARGEST CORRECTION TO DISP.        3.968E-08   AT NODE       1003   DOF  2
          THE FORCE     IS ZERO EVERYWHERE BUT THE FORCE     RESIDUAL OR
          THE DISP.    CORRECTION IS NON-ZERO
 
	SYMMETRIC DIRECT SPARSE SOLVER RUNNING ON
 	1 HOST:        1 MPI RANK  x 4 THREADS
 	NUMBER OF EQUATIONS:     45
 	NUMBER OF RHS:           1
 	NUMBER OF FLOPS:         2.990e+03

     CHECK POINT  START OF SOLVER     

     CHECK POINT  END OF SOLVER       

       ELAPSED USER TIME (SEC)      =  1.00000E-02
       ELAPSED SYSTEM TIME (SEC)    =   0.0000    
       ELAPSED TOTAL CPU TIME (SEC) =  1.00000E-02
       ELAPSED WALLCLOCK TIME (SEC) =            0

               CONVERGENCE CHECKS FOR EQUILIBRIUM ITERATION     3


 AVERAGE FORCE                      4.775E-08   TIME AVG. FORCE       1.000E-02
 LARGEST SCALED RESIDUAL FORCE      1.060E-07   AT NODE       1008   DOF  2
  CORRESPONDING RESIDUAL FORCE      1.060E-07
 LARGEST INCREMENT OF DISP.         2.109E-06   AT NODE       1011   DOF  2
 LARGEST CORRECTION TO DISP.        3.605E-08   AT NODE       1003   DOF  2
          THE FORCE     IS ZERO EVERYWHERE BUT THE FORCE     RESIDUAL OR
          THE DISP.    CORRECTION IS NON-ZERO
 
	SYMMETRIC DIRECT SPARSE SOLVER RUNNING ON
 	1 HOST:        1 MPI RANK  x 4 THREADS
 	NUMBER OF EQUATIONS:     45
 	NUMBER OF RHS:           1
 	NUMBER OF FLOPS:         2.990e+03

     CHECK POINT  START OF SOLVER     

     CHECK POINT  END OF SOLVER       

       ELAPSED USER TIME (SEC)      =   0.0000    
       ELAPSED SYSTEM TIME (SEC)    =   0.0000    
       ELAPSED TOTAL CPU TIME (SEC) =   0.0000    
       ELAPSED WALLCLOCK TIME (SEC) =            0

               CONVERGENCE CHECKS FOR EQUILIBRIUM ITERATION     4


 AVERAGE FORCE                      4.759E-08   TIME AVG. FORCE       1.000E-02
 LARGEST SCALED RESIDUAL FORCE      9.643E-08   AT NODE       1008   DOF  2
  CORRESPONDING RESIDUAL FORCE      9.643E-08
 LARGEST INCREMENT OF DISP.         2.109E-06   AT NODE       1011   DOF  2
 LARGEST CORRECTION TO DISP.        3.275E-08   AT NODE       1003   DOF  2
          THERE IS ZERO FORCE     EVERYWHERE
 

 ***WARNING: THERE IS ZERO FORCE EVERYWHERE IN THE MODEL BASED ON THE DEFAULT 
             CRITERION. PLEASE CHECK THE VALUE OF THE AVERAGE FORCE DURING THE 
             CURRENT ITERATION TO VERIFY THAT THE FORCE IS SMALL ENOUGH TO BE 
             TREATED AS ZERO. IF NOT, PLEASE USE THE SOLUTION CONTROLS TO RESET 
             THE CRITERION FOR ZERO FORCE.
          TIME INCREMENT MAY NOW INCREASE TO    0.316    

 ITERATION SUMMARY FOR THE INCREMENT:   4 TOTAL ITERATIONS, OF WHICH
   0 ARE SEVERE DISCONTINUITY ITERATIONS AND  4 ARE EQUILIBRIUM ITERATIONS.

 TIME INCREMENT COMPLETED  0.211    ,  FRACTION OF STEP COMPLETED  0.633    
 STEP TIME COMPLETED       0.633    ,  TOTAL TIME COMPLETED         2.63    


  INCREMENT     7 STARTS. ATTEMPT NUMBER  1, TIME INCREMENT  0.316    
 
	SYMMETRIC DIRECT SPARSE SOLVER RUNNING ON
 	1 HOST:        1 MPI RANK  x 4 THREADS
 	NUMBER OF EQUATIONS:     45
 	NUMBER OF RHS:           1
 	NUMBER OF FLOPS:         2.990e+03

     CHECK POINT  START OF SOLVER     

     CHECK POINT  END OF SOLVER       

       ELAPSED USER TIME (SEC)      =   0.0000    
       ELAPSED SYSTEM TIME (SEC)    =   0.0000    
       ELAPSED TOTAL CPU TIME (SEC) =   0.0000    
       ELAPSED WALLCLOCK TIME (SEC) =            0

               CONVERGENCE CHECKS FOR EQUILIBRIUM ITERATION     1


 AVERAGE FORCE                      7.118E-08   TIME AVG. FORCE       1.000E-02
 LARGEST SCALED RESIDUAL FORCE      1.317E-07   AT NODE       1008   DOF  2
  CORRESPONDING RESIDUAL FORCE      1.317E-07
 LARGEST INCREMENT OF DISP.         3.164E-06   AT NODE       1011   DOF  2
 LARGEST CORRECTION TO DISP.        4.462E-08   AT NODE       1003   DOF  2
          THE FORCE     IS ZERO EVERYWHERE BUT THE FORCE     RESIDUAL OR
          THE DISP.    CORRECTION IS NON-ZERO
 
	SYMMETRIC DIRECT SPARSE SOLVER RUNNING ON
 	1 HOST:        1 MPI RANK  x 4 THREADS
 	NUMBER OF EQUATIONS:     45
 	NUMBER OF RHS:           1
 	NUMBER OF FLOPS:         2.990e+03

     CHECK POINT  START OF SOLVER     

     CHECK POINT  END OF SOLVER       

       ELAPSED USER TIME (SEC)      =  1.00000E-02
       ELAPSED SYSTEM TIME (SEC)    =   0.0000    
       ELAPSED TOTAL CPU TIME (SEC) =  1.00000E-02
       ELAPSED WALLCLOCK TIME (SEC) =            0

               CONVERGENCE CHECKS FOR EQUILIBRIUM ITERATION     2


 AVERAGE FORCE                      7.105E-08   TIME AVG. FORCE       1.000E-02
 LARGEST SCALED RESIDUAL FORCE      1.200E-07   AT NODE       1008   DOF  2
  CORRESPONDING RESIDUAL FORCE      1.200E-07
 LARGEST INCREMENT OF DISP.         3.164E-06   AT NODE       1011   DOF  2
 LARGEST CORRECTION TO DISP.        4.052E-08   AT NODE       1003   DOF  2
          THE FORCE     IS ZERO EVERYWHERE BUT THE FORCE     RESIDUAL OR
          THE DISP.    CORRECTION IS NON-ZERO
 
	SYMMETRIC DIRECT SPARSE SOLVER RUNNING ON
 	1 HOST:        1 MPI RANK  x 4 THREADS
 	NUMBER OF EQUATIONS:     45
 	NUMBER OF RHS:           1
 	NUMBER OF FLOPS:         2.990e+03

     CHECK POINT  START OF SOLVER     

     CHECK POINT  END OF SOLVER       

       ELAPSED USER TIME (SEC)      =   0.0000    
       ELAPSED SYSTEM TIME (SEC)    =   0.0000    
       ELAPSED TOTAL CPU TIME (SEC) =   0.0000    
       ELAPSED WALLCLOCK TIME (SEC) =            0

               CONVERGENCE CHECKS FOR EQUILIBRIUM ITERATION     3


 AVERAGE FORCE                      7.101E-08   TIME AVG. FORCE       1.000E-02
 LARGEST SCALED RESIDUAL FORCE      1.093E-07   AT NODE       1008   DOF  2
  CORRESPONDING RESIDUAL FORCE      1.093E-07
 LARGEST INCREMENT OF DISP.         3.164E-06   AT NODE       1011   DOF  2
 LARGEST CORRECTION TO DISP.        3.681E-08   AT NODE       1003   DOF  2
          THE FORCE     IS ZERO EVERYWHERE BUT THE FORCE     RESIDUAL OR
          THE DISP.    CORRECTION IS NON-ZERO
 
	SYMMETRIC DIRECT SPARSE SOLVER RUNNING ON
 	1 HOST:        1 MPI RANK  x 4 THREADS
 	NUMBER OF EQUATIONS:     45
 	NUMBER OF RHS:           1
 	NUMBER OF FLOPS:         2.990e+03

     CHECK POINT  START OF SOLVER     

     CHECK POINT  END OF SOLVER       

       ELAPSED USER TIME (SEC)      =   0.0000    
       ELAPSED SYSTEM TIME (SEC)    =  1.00000E-02
       ELAPSED TOTAL CPU TIME (SEC) =  1.00000E-02
       ELAPSED WALLCLOCK TIME (SEC) =            0

               CONVERGENCE CHECKS FOR EQUILIBRIUM ITERATION     4


 AVERAGE FORCE                      7.105E-08   TIME AVG. FORCE       1.000E-02
 LARGEST SCALED RESIDUAL FORCE      9.970E-08   AT NODE       1008   DOF  2
  CORRESPONDING RESIDUAL FORCE      9.970E-08
 LARGEST INCREMENT OF DISP.         3.164E-06   AT NODE       1011   DOF  2
 LARGEST CORRECTION TO DISP.        3.343E-08   AT NODE       1003   DOF  2
          THERE IS ZERO FORCE     EVERYWHERE
 

 ***WARNING: THERE IS ZERO FORCE EVERYWHERE IN THE MODEL BASED ON THE DEFAULT 
             CRITERION. PLEASE CHECK THE VALUE OF THE AVERAGE FORCE DURING THE 
             CURRENT ITERATION TO VERIFY THAT THE FORCE IS SMALL ENOUGH TO BE 
             TREATED AS ZERO. IF NOT, PLEASE USE THE SOLUTION CONTROLS TO RESET 
             THE CRITERION FOR ZERO FORCE.

 ITERATION SUMMARY FOR THE INCREMENT:   4 TOTAL ITERATIONS, OF WHICH
   0 ARE SEVERE DISCONTINUITY ITERATIONS AND  4 ARE EQUILIBRIUM ITERATIONS.

 TIME INCREMENT COMPLETED  0.316    ,  FRACTION OF STEP COMPLETED  0.949    
 STEP TIME COMPLETED       0.949    ,  TOTAL TIME COMPLETED         2.95    


  INCREMENT     8 STARTS. ATTEMPT NUMBER  1, TIME INCREMENT  5.078E-02
 
	SYMMETRIC DIRECT SPARSE SOLVER RUNNING ON
 	1 HOST:        1 MPI RANK  x 4 THREADS
 	NUMBER OF EQUATIONS:     45
 	NUMBER OF RHS:           1
 	NUMBER OF FLOPS:         2.990e+03

     CHECK POINT  START OF SOLVER     

     CHECK POINT  END OF SOLVER       

       ELAPSED USER TIME (SEC)      =   0.0000    
       ELAPSED SYSTEM TIME (SEC)    =  1.00000E-02
       ELAPSED TOTAL CPU TIME (SEC) =  1.00000E-02
       ELAPSED WALLCLOCK TIME (SEC) =            0

               CONVERGENCE CHECKS FOR EQUILIBRIUM ITERATION     1


 AVERAGE FORCE                      1.141E-08   TIME AVG. FORCE       1.000E-02
 LARGEST SCALED RESIDUAL FORCE      1.460E-08   AT NODE       1008   DOF  2
  CORRESPONDING RESIDUAL FORCE      1.460E-08
 LARGEST INCREMENT OF DISP.         5.078E-07   AT NODE       1011   DOF  2
 LARGEST CORRECTION TO DISP.        4.875E-09   AT NODE       1003   DOF  2
          THERE IS ZERO FORCE     EVERYWHERE
 

 ***WARNING: THERE IS ZERO FORCE EVERYWHERE IN THE MODEL BASED ON THE DEFAULT 
             CRITERION. PLEASE CHECK THE VALUE OF THE AVERAGE FORCE DURING THE 
             CURRENT ITERATION TO VERIFY THAT THE FORCE IS SMALL ENOUGH TO BE 
             TREATED AS ZERO. IF NOT, PLEASE USE THE SOLUTION CONTROLS TO RESET 
             THE CRITERION FOR ZERO FORCE.

 ITERATION SUMMARY FOR THE INCREMENT:   1 TOTAL ITERATIONS, OF WHICH
   0 ARE SEVERE DISCONTINUITY ITERATIONS AND  1 ARE EQUILIBRIUM ITERATIONS.

 TIME INCREMENT COMPLETED  5.078E-02,  FRACTION OF STEP COMPLETED   1.00    
 STEP TIME COMPLETED        1.00    ,  TOTAL TIME COMPLETED         3.00    


          THE ANALYSIS HAS BEEN COMPLETED



     ANALYSIS SUMMARY:
     TOTAL OF         11  INCREMENTS
                       2  CUTBACKS IN AUTOMATIC INCREMENTATION
                      51  ITERATIONS INCLUDING CONTACT ITERATIONS IF PRESENT
                      51  PASSES THROUGH THE EQUATION SOLVER OF WHICH 
                      43  INVOLVE MATRIX DECOMPOSITION, INCLUDING
                       0  DECOMPOSITION(S) OF THE MASS MATRIX
                       1  REORDERING OF EQUATIONS TO MINIMIZE WAVEFRONT
                       0  ADDITIONAL RESIDUAL EVALUATIONS FOR LINE SEARCHES
                       0  ADDITIONAL OPERATOR EVALUATIONS FOR LINE SEARCHES
                       6  WARNING MESSAGES DURING USER INPUT PROCESSING
                      11  WARNING MESSAGES DURING ANALYSIS
                       0  ANALYSIS WARNINGS ARE NUMERICAL PROBLEM MESSAGES
                       0  ANALYSIS WARNINGS ARE NEGATIVE EIGENVALUE MESSAGES
                       0  ERROR MESSAGES



     JOB TIME SUMMARY
       USER TIME (SEC)      =     0.52    
       SYSTEM TIME (SEC)    =     0.17    
       TOTAL CPU TIME (SEC) =     0.69    
       WALLCLOCK TIME (SEC) =            1
       MEMORY PEAK (GB)     =            2
