 Abaqus/Standard 2023                  DATE 22-Jul-2026 TIME 10:49:10
 SUMMARY OF JOB INFORMATION:
 STEP  INC ATT SEVERE EQUIL TOTAL  TOTAL      STEP       INC OF       DOF    IF
               DISCON ITERS ITERS  TIME/    TIME/LPF    TIME/LPF    MONITOR RIKS
               ITERS               FREQ
   1     1   1     0     1     1  1.00       1.00       1.000     
   2     1   1     0     1     1  1.50       0.500      0.5000    
   2     2   1     0     1     1  2.00       1.00       0.5000    
   3     1   1U    0     9     9  2.00       0.00       0.5000    
   3     1   2U    0    16    16  2.00       0.00       0.2500    
   3     1   3     0     7     7  2.06       0.0625     0.06250   
   3     2   1     0     1     1  2.12       0.125      0.06250   
   3     3   1     0     1     1  2.19       0.188      0.06250   
   3     4   1     0     1     1  2.28       0.281      0.09375   
   3     5   1     0     4     4  2.42       0.422      0.1406    
   3     6   1     0     4     4  2.63       0.633      0.2109    
   3     7   1     0     4     4  2.95       0.949      0.3164    
   3     8   1     0     1     1  3.00       1.00       0.05078   
                          
 THE ANALYSIS HAS COMPLETED SUCCESSFULLY
